*SRC=2N7002;2N7002;MOSFETs N;Enh;60.0V 0.115A 7.50ohms  Diodes Inc. -
.MODEL 2N7002  NMOS( LEVEL=1 VTO=2.50 KP=32.0m  GAMMA=3.10
+ PHI=.75  LAMBDA=39.9u RD=1.05 RS=1.05
+ IS=57.5f  PB=0.800 MJ=0.460 CBD=98.8p 
+ CBS=119p  CGSO=60.0n CGDO=50.0n CGBO=390n  )
*   -- Assumes default L=100U W=100U --

*DIODES_INC_SPICE_MODEL DMN6068LK3 N-channel MOSFET
*SIMULATOR=SIMETRIX
*ORIGIN=DZSL_DPG_SU
*DATE=21Dec2011
*VERSION=1
*PINS 10=D 20=G 30=S

.SUBCKT DMN6068 10 20 30
M1 1 2 3 3  Nmod1
RD 10 1 Rmod1 27E-3
RS 23 3 Rmod1 27E-3
RG 20 22 1.5
RIN 20 23 2E11
RDS 10 23 6E9
CGS 2 3 380E-12 
EGD 12 0 2 1 1 
VFB 14 0 0 
FFB 2 1  VFB 1 
CGD 13 14 426E-12 
R1 13 0 1 
D1 12 13  DLIM 
DDG 15 14  DCGD 
R2 12 15 1 
D2 15 0  DLIM 
DSD 23 10  DSUB
EL 2 22 1 3 0.0015
LS  30 23 2n
.MODEL Nmod1 NMOS (LEVEL=3 VTO=3.4 TOX=6E-8 NSUB=2.8E+17 KP=155 NFS=8E+11 IS=1E-15 N=10)
.MODEL DCGD D (CJO = 244E-12  VJ = 0.5  M = 0.43 T_ABS=25)
.MODEL DSUB D (IS = .1E-10 N=1.1 RS=0.02 BV=66 CJO=330E-12 VJ=0.42 M=0.5 TT=145E-9 TRS1=2E-3)
.MODEL DLIM D (IS=100U N=1 T_ABS=25)
.MODEL Rmod1 RES (TC1=2e-3 TC2=6E-6)
.ENDS

*DIODES_INC_SPICE_MODEL DMN6066SSD N-channel MOSFET
*SIMULATOR=SIMETRIX
*ORIGIN=DZSL_DPG_SU
*DATE=29Nov2011
*VERSION=1

.SUBCKT DMN6066 10 20 30
M1 1 2 3 3  Nmod1
RD 10 1 Rmod1 27E-3
RS 23 3 Rmod1 27E-3
RG 20 22 1.5
RIN 20 23 2E11
RDS 10 23 6E9
CGS 2 3 420E-12 
EGD 12 0 2 1 1 
VFB 14 0 0 
FFB 2 1  VFB 1 
CGD 13 14 420E-12 
R1 13 0 1 
D1 12 13  DLIM 
DDG 15 14  DCGD 
R2 12 15 1 
D2 15 0  DLIM 
DSD 23 10  DSUB
EL 2 22 1 3 0.0015
LS  30 23  3n
.MODEL Nmod1 NMOS (LEVEL=3 VTO=3.2 TOX=6E-8 NSUB=3E+17 KP=140 NFS=8E+11 IS=1E-15 N=10)
.MODEL DCGD D (CJO = 220E-12  VJ = 0.5  M = 0.43)
.MODEL DSUB D (IS = .1E-10 N=1.1 RS=0.02 BV=66 CJO=330E-12 VJ=0.42 M=0.5 TT=11E-9 TRS1=2E-3)
.MODEL DLIM D (IS=100U N=1)
.MODEL Rmod1 RES (TC1=2e-3 TC2=6E-6)
.ENDS

.SIMULATOR DEFAULT

*SRC=2N7002A;DI_2N7002A;MOSFETs N;Enh;60.0V 0.115A 5.00ohms  Diodes Inc. MOSFET
.MODEL DI_2N7002A  NMOS( LEVEL=1 VTO=2.00 KP=55.7m  GAMMA=2.48
+ PHI=.75  LAMBDA=69.6u RD=0.700 RS=0.700
+ IS=57.5f  PB=0.800 MJ=0.460 CBD=9.88p 
+ CBS=11.9p  CGSO=16.8n CGDO=14.0n CGBO=199n  )
*   -- Assumes default L=100U W=100U --

*SRC=2N7002K;DI_2N7002K;MOSFETs N;Enh;60.0V 0.300A 2.00ohms  Diodes Inc. MOSFET
.MODEL DI_2N7002K  NMOS( LEVEL=1 VTO=2.50 KP=32.0m  GAMMA=3.10
+ PHI=.75  LAMBDA=104u RD=0.280 RS=0.280
+ IS=150f  PB=0.800 MJ=0.460 CBD=98.8p 
+ CBS=119p  CGSO=60.0n CGDO=50.0n CGBO=390n  )
*   -- Assumes default L=100U W=100U --

*SRC=DMN601DMK;DI_DMN601DMK;MOSFETs N;Enh;60.0V 0.300A 2.00ohms  Diodes Inc. MOSFET
.MODEL DI_DMN601DMK  NMOS( LEVEL=1 VTO=2.50 KP=32.0m  GAMMA=3.10
+ PHI=.75  LAMBDA=104u RD=0.280 RS=0.280
+ IS=150f  PB=0.800 MJ=0.460 CBD=98.8p 
+ CBS=119p  CGSO=60.0n CGDO=50.0n CGBO=390n  )
*   -- Assumes default L=100U W=100U --

*SRC=DMN601K;DI_DMN601K;MOSFETs N;Enh;60.0V 0.300A 2.00ohms  Diodes Inc. MOSFET
.MODEL DI_DMN601K  NMOS( LEVEL=1 VTO=2.50 KP=32.0m  GAMMA=3.10
+ PHI=.75  LAMBDA=104u RD=0.280 RS=0.280
+ IS=150f  PB=0.800 MJ=0.460 CBD=98.8p 
+ CBS=119p  CGSO=60.0n CGDO=50.0n CGBO=390n  )
*   -- Assumes default L=100U W=100U --

*SRC=BS870;DI_BS870;MOSFETs N;Enh;60.0V 0.250A 3.50ohms  Diodes Inc. MOSFET 
.MODEL DI_BS870  NMOS( LEVEL=1 VTO=2.00 KP=32.0m  GAMMA=2.48
+ PHI=.75  LAMBDA=86.8u RD=0.490 RS=0.490
+ IS=125f  PB=0.800 MJ=0.460 CBD=29.8p 
+ CBS=35.8p  CGSO=24.0n CGDO=20.0n CGBO=176n  )   *   -- Assumes default L=100U W=100U --

*---------- DMN4031SSD Spice Model ----------
.SUBCKT DMN4031SSD 10 20 30 
*     TERMINALS:  D  G  S
M1 1 2 3 3  NMOS  L = 1E-006  W = 1E-006 
RD 10 1 0.001 
RS 30 3 0.009995 
RG 20 2 1.56 
CGS 2 3 8.311E-010 
EGD 12 0 2 1 1 
VFB 14 0 0 
FFB 2 1  VFB 1 
CGD 13 14 9.4E-010 
R1 13 0 1 
D1 12 13  DLIM 
DDG 15 14  DCGD 
R2 12 15 1 
D2 15 0  DLIM 
DSD 3 10  DSUB 
.MODEL NMOS NMOS  LEVEL = 3  VMAX = 1E+006  ETA = 0.001  VTO = 3.195 
+ TOX = 6E-008  NSUB = 1E+016  KP = 26.57  U0 = 400  KAPPA = 32.33 
.MODEL DCGD D  CJO = 3.144E-010  VJ = 0.09587  M = 0.3239 
.MODEL DSUB D  IS = 1.133E-011  N = 1.136  RS = 1.044E-015  BV = 40  CJO = 1.281E-010  VJ = 0.3722  M = 0.5383 
.MODEL DLIM D  IS = 0.0001 
.ENDS
*Diodes DMN4031SSD Spice Model v1.0 Last Revised 2011/8/15

*
*DIODES_INC_SPICE_MODEL
*ORIGIN=DZSL_DPG
*SIMULATOR=PSPICE
*DATE=28/05/2009
*VERSION=1
*PIN_ORDER         D, G, S
*
.SUBCKT DMN5L06K 3 4 5
M1 6 2 8 8 Nmod1
M2 6 2 8 8 Nmod2
M3 6 2 8 8 Nmod3
J1 3 5 30 Jmod1
RG 4 21 135
RD 30 6 Rmod2 0.02
RS 8 5 Rmod2 0.72
RL 3 5 1E9
D1 5 3 Dmod1
D2 20 6 Dmod2
D3 4 40 Dmod3
D4 5 40 Dmod3
Egs1 2 20 2 8 1
Egs2 13 8 2 8 1
Eds1 14 8 3 8 1
V1 31 5 1
I1 32 5 1
R1 31 32 Rmod1 1
Etg 2 21 32 5 1
C1 2 8 55E-12
C2 2 3  9E-12
C3 15 14 58E-12
C4 16 8 35E-12
S1 2 15 14 13 SMOD1
S2 13 15 14 13 SMOD2
S3 16 13 13 8 SMOD3
S4 16 2 13 8 SMOD4
.MODEL SMOD1 VSWITCH RON=.001 ROFF=100 VON=-0.5 VOFF=1
.MODEL SMOD2 VSWITCH RON=.001 ROFF=100 VON=1 VOFF=-0.5
.MODEL SMOD3 VSWITCH RON=.001 ROFF=100  VON=0 VOFF=-2
.MODEL SMOD4 VSWITCH RON=.001 ROFF=100  VON=-2 VOFF=0
.MODEL Nmod1 NMOS LEVEL=1 VTO=0.94 KP=4 LAMBDA=0.15 IS=1E-15 N=10
.MODEL Nmod2 NMOS LEVEL=1 VTO=0.77 KP=.4  IS=1E-15 N=10
.MODEL Nmod3 NMOS LEVEL=1 VTO=0.60 KP=.04  IS=1E-15 N=10
.MODEL Jmod1 NJF VTO=-3.1 BETA=0.5 VTOTC=-0.006 LAMBDA=0.15
.MODEL Dmod1 D IS=5.516E-13 RS=0.2084 N=1 CJO=18.5E-12 VJ=0.46 M=0.44 TT=20E-9 BV=52
.MODEL Dmod2 D CJO=33E-12 VJ=0.4 M=0.44 RS=0.1
.MODEL Dmod3 D RS=1 BV=20
.MODEL Rmod1 RES (TC1=-1.5e-3 TC2=-1E-6)
.MODEL Rmod2 RES (TC1=8e-3 TC2=2E-5)
.ENDS
*
*$

*SRC=DMN601TK;DI_DMN601TK;MOSFETs N;Enh;60.0V 0.300A 2.00ohms  Diodes Inc. MOSFET
.MODEL DI_DMN601TK  NMOS( LEVEL=1 VTO=2.50 KP=32.0m  GAMMA=3.10
+ PHI=.75  LAMBDA=104u RD=0.280 RS=0.280
+ IS=150f  PB=0.800 MJ=0.460 CBD=98.8p 
+ CBS=119p  CGSO=60.0n CGDO=50.0n CGBO=390n  )
*   -- Assumes default L=100U W=100U --

*---------- DMN66D0LT Spice Model ----------
.SUBCKT DMN66D0LT 10 20 30 
*     TERMINALS:  D  G  S
M1 1 2 3 3  NMOS  L = 1E-006  W = 1E-006 
RD 10 1 1.631 
RS 30 3 0.001 
RG 20 2 133 
CGS 2 3 2.711E-011 
EGD 12 0 2 1 1 
VFB 14 0 0 
FFB 2 1  VFB 1 
CGD 13 14 2.628E-011 
R1 13 0 1 
D1 12 13  DLIM 
DDG 15 14  DCGD 
R2 12 15 1 
D2 15 0  DLIM 
DSD 3 10  DSUB 
.MODEL NMOS NMOS  LEVEL = 3  VMAX = 1E+006  ETA = 0  VTO = 1.596 
+ TOX = 6E-008  NSUB = 1.945E+017  KP = 1.196  KAPPA = 1E-015  U0 = 400  THETA = 5.648E-007 
.MODEL DCGD D  CJO = 2.628E-011  VJ = 0.009081  M = 0.2561 
.MODEL DSUB D  IS = 2.05E-009  N = 1.698  RS = 0.1282  BV = 65  CJO = 6.226E-012  VJ = 1  M = 0.6474 
.MODEL DLIM D  IS = 0.0001 
.ENDS
*Diodes DMN66D0LT Spice Model v1.0 Last Revised 2011/1/13

*SRC=MMBF170;DI_MMBF170;MOSFETs N;Enh;60.0V 0.500A 2.10ohms  Diodes Inc. MOSFET 
.MODEL DI_MMBF170  NMOS( LEVEL=1 VTO=2.10 KP=18.8m  GAMMA=2.60 
+ PHI=.75  LAMBDA=1.04m RD=0.294 RS=0.294 
+ IS=250f  PB=0.800 MJ=0.460 CBD=29.8p 
+ CBS=35.8p  CGSO=24.0n CGDO=20.0n CGBO=176n  ) 
*   -- Assumes default L=100U W=100U --

*
*Zetex ZVN4106F Spice Model v1.1 Last Revised 3/5/00
*
.SUBCKT ZVN4106F 3 4 5
* Nodes          D G S
M1 3 2 5 5 MOD1
RG 4 2 343
RL 3 5 6E6
C1 2 5 23.5P
C2 3 2 4.5P 
D1 5 3 DIODE1
*
.MODEL MOD1 NMOS VTO=2.474 RS=1.68 RD=0.0 IS=1E-15 KP=0.296
+CBD=53.5P PB=1 LAMBDA=267E-6
.MODEL DIODE1 D IS=1.254E-13 N=1.0207 RS=0.222
.ENDS ZVN4106F
*
*$
*
*                (c)  2005 Zetex Semiconductors plc
*
*   The copyright in these models  and  the designs embodied belong
*   to Zetex Semiconductors plc (" Zetex ").  They  are  supplied
*   free of charge by Zetex for the purpose of research and design
*   and may be used or copied intact  (including this notice)  for
*   that purpose only.  All other rights are reserved. The models
*   are believed accurate but  no condition  or warranty  as to their
*   merchantability or fitness for purpose is given and no liability
*   in respect of any use is accepted by Zetex PLC, its distributors
*   or agents.
*
*   Zetex Semiconductors plc, Zetex Technology Park, Chadderton,
*   Oldham, United Kingdom, OL9 9LL

*
*Zetex ZVN4206A Spice Model v2.0 Last Revised 14/07/08
*
.SUBCKT ZVN4206A 3 4 5
*------connections-------D-G-S
M1 6 2 8 8 MOSMOD
M2 6 2 8 8 MOSMODS
RG 4 2 30
RD 3 6 0.05
RS 8 5 0.5 
RL 3 5 6E6
D1 5 3 DMOD
Egs2 13 8 2 8 1
Eds1 14 8 6 8 1
C1 2 8 80E-12
C2 2 3 25E-12
C3 15 14 75E-12 
C4 16 8 40E-12
S1 2 15 14 13 SMOD1
S2 13 15 14 13 SMOD2
S3 16 13 13 8 SMOD3
S4 16 2 13 8 SMOD4
.MODEL SMOD1 VSWITCH RON=.001 ROFF=100 VON=1.5 VOFF=2.5
.MODEL SMOD2 VSWITCH RON=.001 ROFF=100 VON=2.5 VOFF=1.5
.MODEL SMOD3 VSWITCH RON=.001 ROFF=100  VON=-4.5 VOFF=-5.5
.MODEL SMOD4 VSWITCH RON=.001 ROFF=100  VON=-5.5 VOFF=-4.5
.MODEL MOSMOD NMOS VTO=2.4 IS=1E-15 KP=0.84 CBD=195E-12 PB=1
.MODEL MOSMODS NMOS VTO=1.8 IS=1E-15 KP=0.084 PB=1
.MODEL DMOD D IS=6E-13 RS=.13 N=1.01
.ENDS  ZVN4206A
*
*$
*
*                (c)  2008 Diodes Incorporated
*
*   The copyright in these models  and  the designs embodied belong
*   to Diodes Incorporated (" Diodes ").  They  are  supplied
*   free of charge by Diodes for the purpose of research and design
*   and may be used or copied intact  (including this notice)  for
*   that purpose only.  All other rights are reserved. The models
*   are believed accurate but  no condition  or warranty  as to their
*   merchantability or fitness for purpose is given and no liability
*   in respect of any use is accepted by Diodes Incorporated, its distributors
*   or agents.
*
*   Diodes Incorporated, 1566 N. Dallas Parkway, Suite 850, Dallas, TX 75248, USA

*
*Zetex ZVN4306A Spice Model v1.1 Last Revised 3/5/00
*
.SUBCKT ZVN4306A 3 4 5
*NODES: DRAIN GATE SOURCE
M1 3 2 5 5 MOD1
RG 4 2 108
RL 3 5 6E6
C1 2 5 224.5E-12
C2 3 2 10.5E-12 
D1 5 3 DIODE1
*
.MODEL MOD1 NMOS VTO=2.634 RS=0.2762 RD=0.0 IS=1E-15 KP=9.77
+CBD=405E-12 PB=1 LAMBDA=0
.MODEL DIODE1 D IS=6.19E-13 N=1.0043 RS=0.065
.ENDS ZVN4306A
*
*$
*
*                (c)  2005 Zetex Semiconductors plc
*
*   The copyright in these models  and  the designs embodied belong
*   to Zetex Semiconductors plc (" Zetex ").  They  are  supplied
*   free of charge by Zetex for the purpose of research and design
*   and may be used or copied intact  (including this notice)  for
*   that purpose only.  All other rights are reserved. The models
*   are believed accurate but  no condition  or warranty  as to their
*   merchantability or fitness for purpose is given and no liability
*   in respect of any use is accepted by Zetex PLC, its distributors
*   or agents.
*
*   Zetex Semiconductors plc, Zetex Technology Park, Chadderton,
*   Oldham, United Kingdom, OL9 9LL

*
*Zetex ZVN4306G Spice Model v1.1 Last Revised 3/5/00
*
.SUBCKT ZVN4306G 3 4 5
*NODES: DRAIN GATE SOURCE
M1 3 2 5 5 MOD1
RG 4 2 108
RL 3 5 6E6
C1 2 5 224.5E-12
C2 3 2 10.5E-12 
D1 5 3 DIODE1
*
.MODEL MOD1 NMOS VTO=2.634 RS=0.2762 RD=0.0 IS=1E-15 KP=9.77
+CBD=405E-12 PB=1 LAMBDA=0
.MODEL DIODE1 D IS=6.19E-13 N=1.0043 RS=0.065
.ENDS ZVN4306G
*
*$
*
*                (c)  2005 Zetex Semiconductors plc
*
*   The copyright in these models  and  the designs embodied belong
*   to Zetex Semiconductors plc (" Zetex ").  They  are  supplied
*   free of charge by Zetex for the purpose of research and design
*   and may be used or copied intact  (including this notice)  for
*   that purpose only.  All other rights are reserved. The models
*   are believed accurate but  no condition  or warranty  as to their
*   merchantability or fitness for purpose is given and no liability
*   in respect of any use is accepted by Zetex PLC, its distributors
*   or agents.
*
*   Zetex Semiconductors plc, Zetex Technology Park, Chadderton,
*   Oldham, United Kingdom, OL9 9LL

*SRC=2N7002DW;DI_2N7002DW;MOSFETs N;Enh;60.0V 0.115A 3.20ohms  Diodes Inc. MOSFET - One element of dual
.MODEL DI_2N7002DW  NMOS( LEVEL=1 VTO=1.50 KP=32.0m  GAMMA=1.86
+ PHI=.75  LAMBDA=34.2u RD=0.448 RS=0.448
+ IS=57.5f  PB=0.800 MJ=0.460 CBD=44.5p 
+ CBS=53.4p  CGSO=24.0n CGDO=20.0n CGBO=176n  )  *   -- Assumes default L=100U W=100U --

*SRC=2N7002E;DI_2N7002E;MOSFETs N;Enh;60.0V 0.240A 4.00ohms  Diodes Inc. MOSFET .MODEL DI_2N7002E  NMOS( LEVEL=1 VTO=2.50 KP=781u  GAMMA=3.10
+ PHI=.75  LAMBDA=83.2u RD=0.560 RS=0.560
+ IS=120f  PB=0.800 MJ=0.460 CBD=44.5p
+ CBS=53.4p  CGSO=24.0n CGDO=20.0n CGBO=176n  )
*   -- Assumes default L=100U W=100U --

*SRC=2N7002T;DI_2N7002T;MOSFETs N;Enh;60.0V 0.115A 2.00ohms  Didoes Inc. MOSFET 
.MODEL DI_2N7002T  NMOS( LEVEL=1 VTO=1.50 KP=32.0m  GAMMA=1.86
+ PHI=.75  LAMBDA=40.0u RD=0.280 RS=0.280
+ IS=57.5f  PB=0.800 MJ=0.460 CBD=44.5p 
+ CBS=53.4p  CGSO=24.0n CGDO=20.0n CGBO=176n  )   *   -- Assumes default L=100U W=100U --

*SRC=2N7002W;DI_2N7002W;MOSFETs N;Enh;60.0V 0.115A 3.20ohms  Diodes Inc. MOSFET 
.MODEL DI_2N7002W  NMOS( LEVEL=1 VTO=1.50 KP=32.0m  GAMMA=1.86
+ PHI=.75  LAMBDA=40.0u RD=0.448 RS=0.448
+ IS=57.5f  PB=0.800 MJ=0.460 CBD=44.5p 
+ CBS=53.4p  CGSO=24.0n CGDO=20.0n CGBO=176n  )   *   -- Assumes default L=100U W=100U --

*SRC=DMN55D0UT;DI_DMN55D0UT;MOSFETs N;Enh;50.0V 0.160A 4.00ohms  Diodes Inc MOSFET
.MODEL DI_DMN55D0UT  NMOS( LEVEL=1 VTO=1.00 KP=0.324  GAMMA=1.24
+ PHI=.75  LAMBDA=133u RD=0.560 RS=0.560
+ IS=80.0f  PB=0.800 MJ=0.460 CBD=9.60p 
+ CBS=11.5p  CGSO=25.2n CGDO=21.0n CGBO=204n  )
*   -- Assumes default L=100U W=100U --

*SRC=DMN5L06VK;DI_DMN5L06VK;MOSFETs N;Enh;50.0V 0.280A 2.00ohms  Diodes Inc MOSFET
.MODEL DI_DMN5L06VK  NMOS( LEVEL=1 VTO=1.00 KP=0.200  GAMMA=1.24
+ PHI=.75  LAMBDA=117u RD=0.280 RS=0.280
+ IS=140f  PB=0.800 MJ=0.460 CBD=98.8p 
+ CBS=119p  CGSO=60.0n CGDO=50.0n CGBO=390n  )
*   -- Assumes default L=100U W=100U --

*SRC=DMN5L06VK;DI_DMN5L06VK;MOSFETs N;Enh;50.0V 0.280A 2.00ohms  Diodes Inc MOSFET
.MODEL DI_DMN5L06VK  NMOS( LEVEL=1 VTO=1.00 KP=0.200  GAMMA=1.24
+ PHI=.75  LAMBDA=117u RD=0.280 RS=0.280
+ IS=140f  PB=0.800 MJ=0.460 CBD=98.8p 
+ CBS=119p  CGSO=60.0n CGDO=50.0n CGBO=390n  )
*   -- Assumes default L=100U W=100U --

*SRC=DMN66D0LDW;DI_DMN66D0LDW;MOSFETs N;Enh;60.0V 0.115A 5.00ohms  Diodes Inc MOSFET
.MODEL DI_DMN66D0LDW  NMOS( LEVEL=1 VTO=2.00 KP=55.7m  GAMMA=2.48
+ PHI=.75  LAMBDA=69.6u RD=0.700 RS=0.700
+ IS=57.5f  PB=0.800 MJ=0.460 CBD=9.88p 
+ CBS=11.9p  CGSO=16.8n CGDO=14.0n CGBO=199n  )
*   -- Assumes default L=100U W=100U --

*SRC=DMN66D0LW;DI_DMN66D0LW;MOSFETs N;Enh;60.0V 0.115A 5.00ohms  Diodes Inc MOSFET
.MODEL DI_DMN66D0LW  NMOS( LEVEL=1 VTO=2.00 KP=55.7m  GAMMA=2.48
+ PHI=.75  LAMBDA=69.6u RD=0.700 RS=0.700
+ IS=57.5f  PB=0.800 MJ=0.460 CBD=9.88p 
+ CBS=11.9p  CGSO=16.8n CGDO=14.0n CGBO=199n  )
*   -- Assumes default L=100U W=100U --

*
*Zetex ZVN3306F Spice Model v1.1 Last Revised 3/5/00
*
.SUBCKT ZVN3306F 3 4 5
*                D G S
M1 3 2 5 5 N3306M
RG 4 2 270
RL 3 5 1.2E8
C1 2 5 28E-12
C2 3 2 3E-12 
D1 5 3 N3306D
*
.MODEL N3306M NMOS VTO=1.824 RS=1.572 RD=1.436 IS=1E-15 KP=.1233
+CBD=35E-12 PB=1
.MODEL N3306D D IS=5E-12 RS=.768
.ENDS ZVN3306F
*
*$
*
*                (c)  2005 Zetex Semiconductors plc
*
*   The copyright in these models  and  the designs embodied belong
*   to Zetex Semiconductors plc (" Zetex ").  They  are  supplied
*   free of charge by Zetex for the purpose of research and design
*   and may be used or copied intact  (including this notice)  for
*   that purpose only.  All other rights are reserved. The models
*   are believed accurate but  no condition  or warranty  as to their
*   merchantability or fitness for purpose is given and no liability
*   in respect of any use is accepted by Zetex PLC, its distributors
*   or agents.
*
*   Zetex Semiconductors plc, Zetex Technology Park, Chadderton,
*   Oldham, United Kingdom, OL9 9LL

*
*Zetex ZVN4206AV Spice Model v2.0 Last Revised 14/07/08
*
.SUBCKT ZVN4206AV 3 4 5
*------connections-------D-G-S
M1 6 2 8 8 MOSMOD
M2 6 2 8 8 MOSMODS
RG 4 2 30
RD 3 6 0.05
RS 8 5 0.5 
RL 3 5 6E6
D1 5 3 DMOD
Egs2 13 8 2 8 1
Eds1 14 8 6 8 1
C1 2 8 80E-12
C2 2 3 25E-12
C3 15 14 75E-12 
C4 16 8 40E-12
S1 2 15 14 13 SMOD1
S2 13 15 14 13 SMOD2
S3 16 13 13 8 SMOD3
S4 16 2 13 8 SMOD4
.MODEL SMOD1 VSWITCH RON=.001 ROFF=100 VON=1.5 VOFF=2.5
.MODEL SMOD2 VSWITCH RON=.001 ROFF=100 VON=2.5 VOFF=1.5
.MODEL SMOD3 VSWITCH RON=.001 ROFF=100  VON=-4.5 VOFF=-5.5
.MODEL SMOD4 VSWITCH RON=.001 ROFF=100  VON=-5.5 VOFF=-4.5
.MODEL MOSMOD NMOS VTO=2.4 IS=1E-15 KP=0.84 CBD=195E-12 PB=1
.MODEL MOSMODS NMOS VTO=1.8 IS=1E-15 KP=0.084 PB=1
.MODEL DMOD D IS=6E-13 RS=.13 N=1.01
.ENDS  ZVN4206AV
*
*$
*
*                (c)  2008 Diodes Incorporated
*
*   The copyright in these models  and  the designs embodied belong
*   to Diodes Incorporated (" Diodes ").  They  are  supplied
*   free of charge by Diodes for the purpose of research and design
*   and may be used or copied intact  (including this notice)  for
*   that purpose only.  All other rights are reserved. The models
*   are believed accurate but  no condition  or warranty  as to their
*   merchantability or fitness for purpose is given and no liability
*   in respect of any use is accepted by Diodes Incorporated, its distributors
*   or agents.
*
*   Diodes Incorporated, 1566 N. Dallas Parkway, Suite 850, Dallas, TX 75248, USA

*
*Zetex ZVN4206G Spice Model v2.0 Last Revised 14/07/08
*
.SUBCKT ZVN4206G 3 4 5
*------connections-------D-G-S
M1 6 2 8 8 MOSMOD
M2 6 2 8 8 MOSMODS
RG 4 2 30
RD 3 6 0.05
RS 8 5 0.5 
RL 3 5 6E6
D1 5 3 DMOD
Egs2 13 8 2 8 1
Eds1 14 8 6 8 1
C1 2 8 80E-12
C2 2 3 25E-12
C3 15 14 75E-12 
C4 16 8 40E-12
S1 2 15 14 13 SMOD1
S2 13 15 14 13 SMOD2
S3 16 13 13 8 SMOD3
S4 16 2 13 8 SMOD4
.MODEL SMOD1 VSWITCH RON=.001 ROFF=100 VON=1.5 VOFF=2.5
.MODEL SMOD2 VSWITCH RON=.001 ROFF=100 VON=2.5 VOFF=1.5
.MODEL SMOD3 VSWITCH RON=.001 ROFF=100  VON=-4.5 VOFF=-5.5
.MODEL SMOD4 VSWITCH RON=.001 ROFF=100  VON=-5.5 VOFF=-4.5
.MODEL MOSMOD NMOS VTO=2.4 IS=1E-15 KP=0.84 CBD=195E-12 PB=1
.MODEL MOSMODS NMOS VTO=1.8 IS=1E-15 KP=0.084 PB=1
.MODEL DMOD D IS=6E-13 RS=.13 N=1.01
.ENDS  ZVN4206G
*
*$
*
*                (c)  2008 Diodes Incorporated
*
*   The copyright in these models  and  the designs embodied belong
*   to Diodes Incorporated (" Diodes ").  They  are  supplied
*   free of charge by Diodes for the purpose of research and design
*   and may be used or copied intact  (including this notice)  for
*   that purpose only.  All other rights are reserved. The models
*   are believed accurate but  no condition  or warranty  as to their
*   merchantability or fitness for purpose is given and no liability
*   in respect of any use is accepted by Diodes Incorporated, its distributors
*   or agents.
*
*   Diodes Incorporated, 1566 N. Dallas Parkway, Suite 850, Dallas, TX 75248, USA

*
*Zetex ZVN4206GV Spice Model v2.0 Last Revised 14/07/08
*
.SUBCKT ZVN4206GV 3 4 5
*------connections-------D-G-S
M1 6 2 8 8 MOSMOD
M2 6 2 8 8 MOSMODS
RG 4 2 30
RD 3 6 0.05
RS 8 5 0.5 
RL 3 5 6E6
D1 5 3 DMOD
Egs2 13 8 2 8 1
Eds1 14 8 6 8 1
C1 2 8 80E-12
C2 2 3 25E-12
C3 15 14 75E-12 
C4 16 8 40E-12
S1 2 15 14 13 SMOD1
S2 13 15 14 13 SMOD2
S3 16 13 13 8 SMOD3
S4 16 2 13 8 SMOD4
.MODEL SMOD1 VSWITCH RON=.001 ROFF=100 VON=1.5 VOFF=2.5
.MODEL SMOD2 VSWITCH RON=.001 ROFF=100 VON=2.5 VOFF=1.5
.MODEL SMOD3 VSWITCH RON=.001 ROFF=100  VON=-4.5 VOFF=-5.5
.MODEL SMOD4 VSWITCH RON=.001 ROFF=100  VON=-5.5 VOFF=-4.5
.MODEL MOSMOD NMOS VTO=2.4 IS=1E-15 KP=0.84 CBD=195E-12 PB=1
.MODEL MOSMODS NMOS VTO=1.8 IS=1E-15 KP=0.084 PB=1
.MODEL DMOD D IS=6E-13 RS=.13 N=1.01
.ENDS  ZVN4206GV
*
*$
*
*                (c)  2008 Diodes Incorporated
*
*   The copyright in these models  and  the designs embodied belong
*   to Diodes Incorporated (" Diodes ").  They  are  supplied
*   free of charge by Diodes for the purpose of research and design
*   and may be used or copied intact  (including this notice)  for
*   that purpose only.  All other rights are reserved. The models
*   are believed accurate but  no condition  or warranty  as to their
*   merchantability or fitness for purpose is given and no liability
*   in respect of any use is accepted by Diodes Incorporated, its distributors
*   or agents.
*
*   Diodes Incorporated, 1566 N. Dallas Parkway, Suite 850, Dallas, TX 75248, USA

*
*Zetex ZVN4306AV Spice Model v1.0 Last Revised 23/3/06
*
.SUBCKT ZVN4306AV 3 4 5
*NODES: DRAIN GATE SOURCE
M1 3 2 5 5 MOD1
RG 4 2 108
RL 3 5 6E6
C1 2 5 224.5E-12
C2 3 2 10.5E-12 
D1 5 3 DIODE1
*
.MODEL MOD1 NMOS VTO=2.634 RS=0.2762 RD=0.0 IS=1E-15 KP=9.77
+CBD=405E-12 PB=1 LAMBDA=0
.MODEL DIODE1 D IS=6.19E-13 N=1.0043 RS=0.065
.ENDS ZVN4306AV
*
*$
*
*                (c)  2005 Zetex Semiconductors plc
*
*   The copyright in these models  and  the designs embodied belong
*   to Zetex Semiconductors plc (" Zetex ").  They  are  supplied
*   free of charge by Zetex for the purpose of research and design
*   and may be used or copied intact  (including this notice)  for
*   that purpose only.  All other rights are reserved. The models
*   are believed accurate but  no condition  or warranty  as to their
*   merchantability or fitness for purpose is given and no liability
*   in respect of any use is accepted by Zetex PLC, its distributors
*   or agents.
*
*   Zetex Semiconductors plc, Zetex Technology Park, Chadderton,
*   Oldham, United Kingdom, OL9 9LL

*
*Zetex ZVN4306GV Spice Model v1.0 Last Revised 23/2/06
*
.SUBCKT ZVN4306GV 3 4 5
*NODES: DRAIN GATE SOURCE
M1 3 2 5 5 MOD1
RG 4 2 108
RL 3 5 6E6
C1 2 5 224.5E-12
C2 3 2 10.5E-12 
D1 5 3 DIODE1
*
.MODEL MOD1 NMOS VTO=2.634 RS=0.2762 RD=0.0 IS=1E-15 KP=9.77
+CBD=405E-12 PB=1 LAMBDA=0
.MODEL DIODE1 D IS=6.19E-13 N=1.0043 RS=0.065
.ENDS ZVN4306GV
*
*$
*
*                (c)  2005 Zetex Semiconductors plc
*
*   The copyright in these models  and  the designs embodied belong
*   to Zetex Semiconductors plc (" Zetex ").  They  are  supplied
*   free of charge by Zetex for the purpose of research and design
*   and may be used or copied intact  (including this notice)  for
*   that purpose only.  All other rights are reserved. The models
*   are believed accurate but  no condition  or warranty  as to their
*   merchantability or fitness for purpose is given and no liability
*   in respect of any use is accepted by Zetex PLC, its distributors
*   or agents.
*
*   Zetex Semiconductors plc, Zetex Technology Park, Chadderton,
*   Oldham, United Kingdom, OL9 9LL

*
*Zetex ZXM64N035L3 Spice Model v1.1 Last Revised 24/1/03
*
.SUBCKT ZXM64N035L3 3 4 5
*----connections----D-G-S
*
M1 6 2 8 8 MOSMOD
M2 6 2 8 8 MOSMODS
RG 4 2 5
RIN 2 8 200E6
RD 3 6 RDSMOD 0.02
RS 8 5 RDSMOD 0.004 
RL 3 5 35E6
C1 2 8 810E-12
C2 2 3 100E-12 
C3 15 14 1050E-12
C4 16 8 1100E-12
D1 5 3 DMOD1
S1 2 15 14 13 SMOD1a
S2 13 15 14 13 SMOD1b
S3 16 13 13 8 SMOD2a
S4 16 2 13 8 SMOD2b
Egs2 13 8 2 8 1
Eds1 14 8 3 8 1
.MODEL MOSMOD NMOS VTO=2.2 IS=1E-15 KP=15 CBD=512E-12 LAMBDA=4.9E-3
.MODEL MOSMODS NMOS VTO=1.8 IS=1E-15 KP=0.1
.MODEL DMOD1 D IS=6E-13 RS=0.025 BV=42 IBV=1E-6 TT=21e-9
.MODEL SMOD1a VSWITCH RON=1e-2 ROFF=1e4  VON=-1.5 VOFF=1.5
.MODEL SMOD1b VSWITCH RON=1e-2 ROFF=1e4  VON=1.5 VOFF=-1.5
.MODEL SMOD2a VSWITCH RON=1e2 ROFF=1e4  VON=-1.5 VOFF=-3.5
.MODEL SMOD2b VSWITCH RON=1e-2 ROFF=1e4  VON=-3.5 VOFF=-1.5
.MODEL RDSMOD RES (TC1=3E-3 TC2=2E-5)
.ENDS  ZXM64N035L3
*
*$
*
*                (c)  2005 Zetex Semiconductors plc
*
*   The copyright in these models  and  the designs embodied belong
*   to Zetex Semiconductors plc (" Zetex ").  They  are  supplied
*   free of charge by Zetex for the purpose of research and design
*   and may be used or copied intact  (including this notice)  for
*   that purpose only.  All other rights are reserved. The models
*   are believed accurate but  no condition  or warranty  as to their
*   merchantability or fitness for purpose is given and no liability
*   in respect of any use is accepted by Zetex PLC, its distributors
*   or agents.
*
*   Zetex Semiconductors plc, Zetex Technology Park, Chadderton,
*   Oldham, United Kingdom, OL9 9LL

*
*Zetex ZXMN6A07F Spice Model v1.0 Last Revised 29/6/05
*              
.SUBCKT ZXMN6A07F 30 40 50
*----connections-----D_G_S
M1 6 2 5 5 Nmod L=.6E-6 W=0.34
M2 5 2 5 6 Pmod L=.6E-6 W=0.24
RG 4 2 4
RIN 2 5 1E12
RD 3 6 Rmod1 0.12
RL 6 5 10E9
C1 2 5 25E-12
C2 3 4 15E-12
D1 5 3  Dbodymod
LD 3 30 0.5E-9
LG 4 40 1.0E-9
LS 5 50 1.0E-9
.MODEL Nmod NMOS (LEVEL=3 TOX=85E-9 NSUB=1E17 VTO=3.35  XJ=1.6E-6
+KP=9.5E-6 RS=.035 NFS=1.2E12 KAPPA=0.06 UO=650 IS=1E-15 N=10)
.MODEL Pmod PMOS (LEVEL=3 TOX=80E-9 NSUB=1E16 XJ=2.3E-6
+TPG=-1 IS=1E-15 N=10)
.MODEL Dbodymod D (IS=0.5E-12 RS=.055  TRS1=1.5e-3
+CJO=71e-12  TT=24E-9 BV=66)
.MODEL Rmod1 RES (TC1=7.3e-3 TC2=1.6E-5)
.ENDS ZXMN6A07F
*
*$
*
*                (c)  2005 Zetex Semiconductors plc
*
*   The copyright in these models  and  the designs embodied belong
*   to Zetex Semiconductors plc (" Zetex ").  They  are  supplied
*   free of charge by Zetex for the purpose of research and design
*   and may be used or copied intact  (including this notice)  for
*   that purpose only.  All other rights are reserved. The models
*   are believed accurate but  no condition  or warranty  as to their
*   merchantability or fitness for purpose is given and no liability
*   in respect of any use is accepted by Zetex PLC, its distributors
*   or agents.
*
*   Zetex Semiconductors plc, Zetex Technology Park, Chadderton,
*   Oldham, United Kingdom, OL9 9LL

*
*Zetex ZXMN6A08E6 Spice Model v2.0 Last Revised 22/2/05
*
.SUBCKT ZXMN6A08E6 30 40 50
*----connections-----D_G_S
M1 6 2 5 5 Nmod L=1E-6 W=0.6
M2 5 2 5 6 Pmod L=1E-6 W=0.45
RG 4 2 4
RIN 2 5 1E12
RD 3 6 Rmod1 0.075
RL 6 5 10E9
C1 2 5 100E-12
C2 3 4 5E-12
D1 5 3  Dbodymod
LD 3 30 0.3E-9
LG 4 40 1.9E-9
LS 5 50 1.9E-9
.MODEL Nmod NMOS (LEVEL=3 TOX=5E-8 NSUB=2E17 VTO=2.25
+KP=1.8E-5 RS=.009 NFS=2E12 KAPPA=0.06 UO=650 IS=1E-15 N=10)
.MODEL Pmod PMOS (LEVEL=3 TOX=8E-8 NSUB=1E16
+TPG=-1 IS=1E-15 N=10)
.MODEL Dbodymod D (IS=2E-12 RS=.025 IKF=0.06 TRS1=1.5e-3
+CJO=120e-12  BV=61)
.MODEL Rmod1 RES (TC1=6e-3 TC2=1.2E-5)
.ENDS ZXMN6A08E6
*
*$
*
*                (c)  2005 Zetex Semiconductors plc
*
*   The copyright in these models  and  the designs embodied belong
*   to Zetex Semiconductors plc (" Zetex ").  They  are  supplied
*   free of charge by Zetex for the purpose of research and design
*   and may be used or copied intact  (including this notice)  for
*   that purpose only.  All other rights are reserved. The models
*   are believed accurate but  no condition  or warranty  as to their
*   merchantability or fitness for purpose is given and no liability
*   in respect of any use is accepted by Zetex PLC, its distributors
*   or agents.
*
*   Zetex Semiconductors plc, Zetex Technology Park, Chadderton,
*   Oldham, United Kingdom, OL9 9LL

*
*DIODES_INC_SPICE_MODEL
*ORIGIN=DZSL_DPG
*SIMULATOR=PSPICE
*DATE=02/11/2009
*VERSION=1
*PIN_ORDER         D G S
*
.SUBCKT ZXMN6A08K 30 40 50
M1 6 2 5 5 Nmod L=1E-6 W=0.6
M2 5 2 5 6 Pmod L=1E-6 W=0.45
RG 4 2 4
RIN 2 5 1E12
RD 3 6 Rmod1 0.075
RL 6 5 10E9
C1 2 5 100E-12
C2 3 4 5E-12
D1 5 3  Dbodymod
LD 3 30 1E-9
LG 4 40 2.3E-9
LS 5 50 2.3E-9
.MODEL Nmod NMOS (LEVEL=3 TOX=5E-8 NSUB=2E17 VTO=2.25
+KP=1.8E-5 RS=0.009 NFS=2E12 KAPPA=0.06 UO=650 IS=1E-15 N=10)
.MODEL Pmod PMOS (LEVEL=3 TOX=8E-8 NSUB=1E16
+TPG=-1 IS=1E-15 N=10)
.MODEL Dbodymod D (IS=2E-12 RS=0.025 IKF=0.06 TRS1=1.5e-3
+CJO=120e-12  BV=61)
.MODEL Rmod1 RES (TC1=6e-3 TC2=1.2E-5)
.ENDS ZXMN6A08K
*
*$

*
*Zetex ZVN2106A Spice Model v2.0 Last Revised 30/6/08
*
.SUBCKT ZVN2106A 3 4 5
*------connections-------D-G-S
M1 6 2 8 8 N2106AM
M2 6 2 8 8 N2106AMS
RG 4 2 15
RD 3 6 0.25
RS 8 5 0.94 
RL 3 5 100E6
D1 5 3 N2106AD
Egs2 13 8 2 8 1
Eds1 14 8 6 8 1
C1 2 8 72E-12
C2 2 3  20E-12
C3 15 14 70E-12 
C4 16 8 83E-12
S1 2 15 14 13 SMOD1
S2 13 15 14 13 SMOD2
S3 16 13 13 8 SMOD3
S4 16 2 13 8 SMOD4
.MODEL SMOD1 VSWITCH RON=.001 ROFF=100 VON=1.5 VOFF=2.5
.MODEL SMOD2 VSWITCH RON=.001 ROFF=100 VON=2.5 VOFF=1.5
.MODEL SMOD3 VSWITCH RON=.001 ROFF=100  VON=-4.5 VOFF=-5.5
.MODEL SMOD4 VSWITCH RON=.001 ROFF=100  VON=-5.5 VOFF=-4.5
.MODEL N2106AM NMOS VTO=1.6 IS=1E-15 KP=0.67 CBD=50E-12 PB=1
.MODEL N2106AMS NMOS VTO=.98 IS=1E-15 KP=0.006 PB=1
.MODEL N2106AD D IS=5.516E-13 RS=.2084 N=1.0078
.ENDS ZVN2106A
*
*$
*
*                (c)  2008 Diodes Incorporated
*
*   The copyright in these models  and  the designs embodied belong
*   to Diodes Incorporated (" Diodes ").  They  are  supplied
*   free of charge by Diodes for the purpose of research and design
*   and may be used or copied intact  (including this notice)  for
*   that purpose only.  All other rights are reserved. The models
*   are believed accurate but  no condition  or warranty  as to their
*   merchantability or fitness for purpose is given and no liability
*   in respect of any use is accepted by Diodes Incorporated, its distributors
*   or agents.
*
*   Diodes Incorporated, 1566 N. Dallas Parkway, Suite 850, Dallas, TX 75248, USA

*
*Zetex ZVN2106G Spice Model v2.0 Last Revised 30/6/08
*
.SUBCKT ZVN2106G 3 4 5
*------connections-------D-G-S
M1 6 2 8 8 N2106AM
M2 6 2 8 8 N2106AMS
RG 4 2 15
RD 3 6 0.25
RS 8 5 0.94 
RL 3 5 100E6
D1 5 3 N2106AD
Egs2 13 8 2 8 1
Eds1 14 8 6 8 1
C1 2 8 72E-12
C2 2 3  20E-12
C3 15 14 70E-12 
C4 16 8 83E-12
S1 2 15 14 13 SMOD1
S2 13 15 14 13 SMOD2
S3 16 13 13 8 SMOD3
S4 16 2 13 8 SMOD4
.MODEL SMOD1 VSWITCH RON=.001 ROFF=100 VON=1.5 VOFF=2.5
.MODEL SMOD2 VSWITCH RON=.001 ROFF=100 VON=2.5 VOFF=1.5