*
.SUBCKT 1PS10SB82 1 2 
*
* The Resistor R1 does not reflect 
* a physical device. Instead it
* improves modeling in the reverse 
* mode of operation.
*
R1 1 2 3E+7 
D1 1 2 1PS10SB82
*
.MODEL 1PS10SB82 D 
+ IS = 1.042E-8 
+ N = 1.029 
+ BV = 17 
+ IBV = 0.001 
+ RS = 5.567 
+ CJO = 9.779E-13 
+ VJ = 0.2925 
+ M = 0.194 
+ FC = 0.5 
+ EG = 0.69 
+ XTI = 2 
.ENDS*
.SUBCKT 1PS66SB17 1 2 3 4 5 6
*
* The Resistors do not 
* reflect physical devices. 
* Instead they improve modeling
* in the reverse mode of 
* operation.
*
R1 1 6 6E+07
D1 1 6 1PS66SB17
R2 2 5 6E+07
D2 2 5 1PS66SB17
R3 3 4 6E+07
D3 3 4 1PS66SB17
*
.MODEL 1PS66SB17 D 
+ IS = 1.419E-09 
+ N = 1.022 
+ BV = 6 
+ IBV = 2.45E-06 
+ RS = 5.112 
+ CJO = 7.662E-13
+ VJ = 0.1681 
+ M = 0.1995
+ FC = 0.5 
+ EG = 0.69 
+ XTI = 2 
.ENDS
**
.SUBCKT 1PS66SB82 1 2 3 4 5 6
*
* The Resistors do not 
* reflect physical devices. 
* Instead they improve modeling
* in the reverse mode of 
* operation.
*
R1 1 6 3E+7
D1 1 6 1PS66SB82
R2 2 5 3E+7
D2 2 5 1PS66SB82
R3 3 4 3E+7
D3 3 4 1PS66SB82
*
.MODEL 1PS66SB82 D 
+ IS = 1.042E-8 
+ N = 1.029 
+ BV = 17 
+ IBV = 0.001 
+ RS = 5.567 
+ CJO = 9.779E-13 
+ VJ = 0.2925 
+ M = 0.194 
+ FC = 0.5 
+ EG = 0.69 
+ XTI = 2 
.ENDS
**
.SUBCKT 1ps70sb10 1 3 
* The Resistor R1 does not reflect 
* a physical device.  Instead it
* improves modeling in the reverse 
* mode of operation.
*
R1 1 3 3.6E+07 
D1 1 3 1ps70sb10  
*
.MODEL 1ps70sb10 D( 
+    IS = 2.117E-07 
+    N = 1.016 
+    BV = 36 
+    IBV = 1.196E-06 
+    RS = 2.637 
+    CJO = 1.114E-11 
+    VJ = 0.2013 
+    M = 0.3868 
+    FC = 0 
+    TT = 0 
+    EG = 0.69 
+    XTI = 2) 
*
*
.SUBCKT 1ps70sb14 1 2 3
* The resistors do not reflect 
* physical devices.  Instead they
* improve modeling in the reverse 
* mode of operation.
*
R1 1 3 3.6E+07 
D1 1 3 1ps70sb14
R2 3 2 3.6E+07
D2 3 2 1ps70sb14 
*
.MODEL 1ps70sb14 D( 
+    IS = 2.117E-07 
+    N = 1.016 
+    BV = 36 
+    IBV = 1.196E-06 
+    RS = 2.637 
+    CJO = 1.114E-11 
+    VJ = 0.2013 
+    M = 0.3868 
+    FC = 0 
+    TT = 0 
+    EG = 0.69 
+    XTI = 2) 
*
*
.SUBCKT 1ps70sb15 1 2 3
* The resistors do not reflect 
* physical devices.  Instead they
* improve modeling in the reverse 
* mode of operation.
*
R1 1 3 3.6E+07 
D1 1 3 1ps70sb15
R2 2 3 3.6E+07
D2 2 3 1ps70sb15 
*
.MODEL 1ps70sb15 D( 
+    IS = 2.117E-07 
+    N = 1.016 
+    BV = 36 
+    IBV = 1.196E-06 
+    RS = 2.637 
+    CJO = 1.114E-11 
+    VJ = 0.2013 
+    M = 0.3868 
+    FC = 0 
+    TT = 0 
+    EG = 0.69 
+    XTI = 2) 
**
.SUBCKT 1ps70sb16 1 2 3
* The resistors do not reflect 
* physical devices.  Instead they
* improve modeling in the reverse 
* mode of operation.
*
R1 3 1 3.6E+07 
D1 3 1 1ps70sb16
R2 3 2 3.6E+07
D2 3 2 1ps70sb16 
*
.MODEL 1ps70sb16 D( 
+    IS = 2.117E-07 
+    N = 1.016 
+    BV = 36 
+    IBV = 1.196E-06 
+    RS = 2.637 
+    CJO = 1.114E-11 
+    VJ = 0.2013 
+    M = 0.3868 
+    FC = 0 
+    TT = 0 
+    EG = 0.69 
+    XTI = 2) 
**
.SUBCKT 1PS70SB20 1 2
* The Resistor R1 does not reflect
* a physical device. Instead it 
* improves modeling in the reverse
* mode of operation.
*
R1 1 2 4.018E+06
D1 1 2 1PS70SB20
*
.MODEL 1PS70SB20 D(
+ IS = 4.291E-06
+ N = 1.002
+ BV = 44
+ IBV = 3.0E-05
+ RS = 0.3772
+ CJO = 7.8E-11
+ VJ = 0.4015
+ M = 0.508
+ FC = 0.1
+ TT = 0
+ EG = 0.69
+ XTI = 2)
.ENDS
**
.SUBCKT 1PS70SB40 1 3
* The Resistor R1 does not reflect 
* a physical device.  Instead it 
* improves modeling in the reverse
* mode of operation.
R1 1 3 6.659E+08 
D1 1 3 1PS70SB40
*
.MODEL 1PS70SB40 D( 
+ IS = 1.419E-08 
+ N = 1.025 
+ BV = 44 
+ IBV = 1.255E-07 
+ RS = 4.942 
+ CJO = 4.046E-12 
+ VJ = 0.323 
+ M = 0.4154 
+ FC = 0.5 
+ TT = 0 
+ EG = 0.69 
+ XTI = 2) 
.ENDS
**
.SUBCKT 1PS70SB44 1 2 3
* The Resistors do not reflect
* physical devices.  Instead they 
* improve modeling in the reverse
* mode of operation.
R1 1 3 6.659E+08 
D1 1 3 1PS70SB44
R2 3 2 6.659E+08
D2 3 2 1PS70SB44
*
.MODEL 1PS70SB44 D( 
+ IS = 1.419E-08 
+ N = 1.025 
+ BV = 44 
+ IBV = 1.255E-07 
+ RS = 4.942 
+ CJO = 4.046E-12 
+ VJ = 0.323 
+ M = 0.4154 
+ FC = 0.5 
+ TT = 0 
+ EG = 0.69 
+ XTI = 2) 
.ENDS
**
.SUBCKT 1PS70SB45 1 2 3
* The Resistors do not reflect
* physical devices.  Instead they 
* improve modeling in the reverse
* mode of operation.
R1 1 3 6.659E+08 
D1 1 3 1PS70SB45
R2 2 3 6.659E+08
D2 2 3 1PS70SB45
*
.MODEL 1PS70SB45 D( 
+ IS = 1.419E-08 
+ N = 1.025 
+ BV = 44 
+ IBV = 1.255E-07 
+ RS = 4.942 
+ CJO = 4.046E-12 
+ VJ = 0.323 
+ M = 0.4154 
+ FC = 0.5 
+ TT = 0 
+ EG = 0.69 
+ XTI = 2) 
.ENDS
**
.SUBCKT 1PS70SB46 1 2 3
* The Resistors do not reflect
* physical devices.  Instead they 
* improve modeling in the reverse
* mode of operation.
R1 3 1 6.659E+08 
D1 3 1 1PS70SB46
R2 3 2 6.659E+08
D2 3 2 1PS70SB46
*
.MODEL 1PS70SB46 D( 
+ IS = 1.419E-08 
+ N = 1.025 
+ BV = 44 
+ IBV = 1.255E-07 
+ RS = 4.942 
+ CJO = 4.046E-12 
+ VJ = 0.323 
+ M = 0.4154 
+ FC = 0.5 
+ TT = 0 
+ EG = 0.69 
+ XTI = 2) 
.ENDS
**
.SUBCKT 1PS70SB82 1 2 3
*
R1 1 3 3E+07
D1 1 3 1PS70SB82
*
* The resistors do not reflect 
* physical devices. Instead they
* improve modeling in the reverse 
* mode of operation.
*
.MODEL 1PS70SB82 D
+ IS = 1.042E-08
+ N = 1.029
+ BV = 20
+ IBV = 0.001
+ RS = 5.567
+ CJO = 1.029E-12
+ VJ = 0.2159
+ M = 0.1731
+ FC = 0
+ TT = 0
+ EG = 0.69
+ XTI = 2
.ENDS


*
.SUBCKT 1PS70SB84 1 2 3
*
R1 1 3 3E+07
D1 1 3 1PS70SB84
R2 3 2 3E+07
D2 3 2 1PS70SB84  
*
* The resistors do not reflect 
* physical devices. Instead they
* improve modeling in the reverse 
* mode of operation.
*
.MODEL 1PS70SB84 D
+ IS = 1.042E-08
+ N = 1.029
+ BV = 20
+ IBV = 0.001
+ RS = 5.567
+ CJO = 1.029E-12
+ VJ = 0.2159
+ M = 0.1731
+ FC = 0
+ TT = 0
+ EG = 0.69
+ XTI = 2
.ENDS


*
.SUBCKT 1PS70SB85 1 2 3
*
R1 1 3 3E+07
D1 1 3 1PS70SB85
R2 2 3 3E+07
D2 2 3 1PS70SB85
*
* The resistors do not reflect 
* physical devices. Instead they
* improve modeling in the reverse 
* mode of operation.
*
.MODEL 1PS70SB85 D
+ IS = 1.042E-08
+ N = 1.029
+ BV = 20
+ IBV = 0.001
+ RS = 5.567
+ CJO = 1.029E-12
+ VJ = 0.2159
+ M = 0.1731
+ FC = 0
+ TT = 0
+ EG = 0.69
+ XTI = 2
.ENDS


*
.SUBCKT 1PS70SB86 1 2 3
*
R1 3 1 3E+07
D1 3 1 1PS70SB86
R2 3 2 3E+07
D2 3 2 1PS70SB86
*
* The resistors do not reflect 
* physical devices. Instead they
* improve modeling in the reverse 
* mode of operation.
*
.MODEL 1PS70SB86 D
+ IS = 1.042E-08
+ N = 1.029
+ BV = 20
+ IBV = 0.001
+ RS = 5.567
+ CJO = 1.029E-12
+ VJ = 0.2159
+ M = 0.1731
+ FC = 0
+ TT = 0
+ EG = 0.69
+ XTI = 2
.ENDS


*
.SUBCKT 1PS74SB23 1 2 
* The Resistor R1 does not reflect 
* a physical device.  Instead it
* improves modeling in the reverse
* mode of operation.
R1 1 2 2.56E+05 
D1 1 2 1PS74SB23
.MODEL 1PS74SB23 D 
+ IS = 6.984E-06 
+ N = 1.023 
+ BV = 30 
+ IBV = 0.0002402 
+ RS = 0.1574 
+ CJO = 3.075E-10 
+ VJ = 0.6615 
+ M = 0.6098 
+ FC = 0.5 
+ TT = 0 
+ EG = 0.69 
+ XTI = 2 
.ENDS
**
.SUBCKT 1PS75SB45 1 2 3
*
* The resistors do not reflect 
* physical devices.  Instead they
* improve modeling in the reverse
* mode of operation.
*
R1 1 3 8E+08 
D1 1 3 1PS75SB45
R2 2 3 8E+08
D2 2 3 1PS75SB45 
.MODEL 1PS75SB45 D( 
+ IS = 9.114E-09 
+ N = 1.006 
+ BV = 45 
+ IBV = 7.8E-05 
+ RS = 4.563 
+ CJO = 3.895E-12 
+ VJ = 0.3192 
+ M = 0.4008 
+ FC = 0.5 
+ TT = 0 
+ EG = 0.69 
+ XTI = 2) 
.ENDS
**
.SUBCKT 1PS76SB10 1 2 
* The Resistor R1 does not reflect 
* a physical device.  Instead it
* improves modeling in the reverse
* mode of operation.
R1 1 2 2.9E+07 
D1 1 2 1PS76SB10 
.MODEL 1PS76SB10 D( 
+ IS = 2.548E-07 
+ N = 1.02 
+ BV = 33 
+ IBV = 1.251E-06 
+ RS = 2.582 
+ CJO = 9.92E-12 
+ VJ = 0.317 
+ M = 0.4411 
+ FC = 0.5 
+ TT = 0 
+ EG = 0.69 
+ XTI = 2) 
.ENDS
**
*.SUBCKT 1PS76SB17 1 2 
* The Resistor R1 does not reflect
* a physical device.  Instead it
* improves modeling in the reverse
* mode of operation.
R1 1 2 6E+07 
D1 1 2 1PS76SB17 
.MODEL 1PS76SB17 D( 
+ IS = 1.419E-09 
+ N = 1.022 
+ BV = 6 
+ IBV = 2.45E-06 
+ RS = 5.112 
+ CJO = 7.867E-13 
+ VJ = 0.1043 
+ M = 0.1439 
+ FC = 0.5 
+ TT = 0 
+ EG = 0.69 
+ XTI = 2) 
.ENDS
*
**
.SUBCKT 1PS76SB21 1 2 
* The Resistor R1 does not reflect
* a physical device.  Instead it 
* improves modeling in the 
* reverse mode of operation.
R1 1 2 5.9E+06 
D1 1 2 1PS76SB21 
.MODEL 1PS76SB21 D (
+ IS = 1.009E-06 
+ N = 1.017 
+ BV = 44 
+ IBV = 0.001611 
+ RS = 0.6578 
+ CJO = 3.76E-11 
+ VJ = 0.274 
+ M = 0.4381 
+ FC = 0.5 
+ TT = 0 
+ EG = 0.69 
+ XTI = 2 )
.ENDS
**
.SUBCKT 1PS76SB40 1 2 
* The Resistor R1 does not 
* reflect a physical device. 
* Instead it improves modeling
* in the reverse mode of 
* operation.
R1 2 1 6.659E+08 
D1 2 1 1PS76SB40
*
.MODEL 1PS76SB40 D
+ IS = 1.419E-08 
+ N = 1.025 
+ BV = 44 
+ IBV = 1.255E-07 
+ RS = 4.942 
+ CJO = 4.046E-12 
+ VJ = 0.323 
+ M = 0.4154 
+ FC = 0.5 
+ TT = 0 
+ EG = 0.69 
+ XTI = 2
.ENDS
**
.SUBCKT 1PS76SB70 1 2 
* The Resistor R1 does not reflect a
* physical device.  Instead it improves
* modeling in the reverse mode of
* operation.
R1 1 2 1.409E+09 
D1 1 2 1PS76SB70  
.MODEL 1PS76SB70 D( 
+ IS = 3.22E-09 
+ N = 1.018 
+ BV = 77
+ IBV = 1.67E-07 
+ RS = 20.89 
+ CJO = 1.655E-12 
+ VJ = 0.349
+ M = 0.3583
+ FC = 0.5 
+ TT = 0 
+ EG = 0.69 
+ XTI = 2) 
.ENDS
**
.SUBCKT 1PS79SB10 1 2 
* The Resistor R1 does not reflect a
* physical device.  Instead it improves
* modeling in the reverse mode of
* operation.
R1 1 2 3.5E+07 
D1 1 2 1PS79SB10 
* 
.MODEL 1PS79SB10 D( 
+ IS = 2.36E-07 
+ N = 1.009 
+ BV = 33 
+ IBV = 0.001 
+ RS = 2.633 
+ CJO = 9.53E-12 
+ VJ = 0.2034 
+ M = 0.3811 
+ FC = 0.6435 
+ TT = 0 
+ EG = 0.69 
+ XTI = 2) 
.ENDS
**
.SUBCKT 1PS79SB17 1 2
*
* The Resistor R1 does not reflect 
* a physical device. Instead it
* improves modeling in the reverse 
* mode of operation.
*
R1 3 1 6E+07
D1 3 1 1PS79SB17
*
.MODEL 1PS79SB17 D
+ IS = 1.419E-9
+ N = 1.022
+ BV = 6
+ IBV = 2.45E-6 
+ RS = 5.112
+ CJO = 7.662E-13
+ VJ = 0.1681
+ M = 0.1995
+ FC = 0.5
+ EG = 0.69
+ XTI = 2
.ENDS
**
.SUBCKT 1PS79SB30 1 2
*
* The Resistor R1 does not reflect 
* a physical device. Instead it
* improves modeling in the reverse 
* mode of operation.
*
R1 1 2 9.5E+07
D1 1 2 1PS79SB30
*
.MODEL 1PS79SB30 D
+ IS = 8E-08
+ N = 1.012
+ BV = 45
+ IBV = 0.0001
+ RS = 0.8243
+ CJO = 2.515E-11
+ VJ = 0.4182
+ M = 0.4941
+ FC = 0.5
+ TT = 0
+ EG = 0.69
+ XTI = 2
.ENDS
*
*
.SUBCKT 1PS79SB31 1 2
*
* The Resistor R1 does not reflect 
* a physical device. Instead it
* improves modeling in the reverse 
* mode of operation.
*
R1 1 2 4.771E+06
D1 1 2 1PS79SB31
*
.MODEL 1PS79SB31 D
+ IS = 9.539E-07
+ N = 1.007
+ BV = 35
+ IBV = 4E-05
+ RS = 0.4678
+ CJO = 3.518E-11
+ VJ = 0.3193
+ M = 0.4687
+ FC = 0.5
+ TT = 0
+ EG = 0.69
+ XTI = 2
.ENDS*
.SUBCKT 1PS79SB40 1 2
*
* The resistor does not reflect a
* physical devices.  Instead it improves
* modeling in the reverse mode of
* operation.
*
R1 2 1 8E+08
D1 2 1 1PS79SB40
.MODEL 1PS79SB40 D
+ IS = 8.361E-09
+ N = 1.003
+ BV = 44
+ IBV = 8E-07
+ RS = 5.031
+ CJO = 3.8E-12
+ VJ = 0.1119
+ M = 0.2915
+ FC = 1
+ TT = 0
+ EG = 0.69
+ XTI = 2
.ENDS
**
* 1PS88SB48
* The resistors do not reflect 
* physical devices.  Instead 
* they improve modeling in the
* reverse mode of operation.
*
.SUBCKT 1PS88SB48 1 2 3 4 5 6
R1 1 6 8.961E+08 
D1 1 6 1PS88SB48 
R2 2 6 8.961E+08
D2 2 6 1PS88SB48
R3 4 3 8.961E+08
D3 4 3 1PS88SB48
R4 5 3 8.961E+08
D4 5 3 1PS88SB48
.MODEL 1PS88SB48 D 
+ IS = 9.649E-09 
+ N = 1.013 
+ BV = 1000 
+ IBV = 0.001 
+ RS = 4.999 
+ CJO = 3.928E-12 
+ VJ = 0.2057 
+ M = 0.3426 
+ FC = 4.441E-16 
+ TT = 0 
+ EG = 0.69 
+ XTI = 2 
.ENDS*
.SUBCKT 1PS88SB82 1 2 3 4 5 6
*
R1 1 6 3E+07
D1 1 6 1PS88SB82
R2 2 5 3E+07
D2 2 5 1PS88SB82
R3 3 4 3E+07
D3 3 4 1PS88SB82
*
* The resistors do not reflect 
* physical devices. Instead they
* improve modeling in the reverse 
* mode of operation.
*
.MODEL 1PS88SB82 D
+ IS = 1.042E-08
+ N = 1.029
+ BV = 20
+ IBV = 0.001
+ RS = 5.567
+ CJO = 1.029E-12
+ VJ = 0.2159
+ M = 0.1731
+ FC = 0
+ TT = 0
+ EG = 0.69
+ XTI = 2
.ENDS


*
.SUBCKT BAS40-04 1 2 3 
* The Resistors do not 
* reflect physical devices. 
* Instead they improve modeling
* in the reverse mode of 
* operation.
R1 1 3 6.659E+08 
D1 1 3 BAS40-04
R2 3 2 6.659E+08
D2 3 2 BAS40-04 
*
.MODEL BAS40-04 D( 
+ IS = 1.419E-08 
+ N = 1.025 
+ BV = 44 
+ IBV = 1.255E-07 
+ RS = 4.942 
+ CJO = 4.046E-12 
+ VJ = 0.323 
+ M = 0.4154 
+ FC = 0.5 
+ TT = 0 
+ EG = 0.69 
+ XTI = 2) 
.ENDS
**
.SUBCKT BAS40-04W 1 2 3
* The Resistors do not 
* reflect physical devices. 
* Instead they improve modeling
* in the reverse mode of 
* operation.
R1 1 3 6.659E+08 
D1 1 3 BAS40-04W 
R2 3 2 6.659E+08
D2 3 2 BAS40-04W 
*
.MODEL BAS40-04W D( 
+ IS = 1.419E-08 
+ N = 1.025 
+ BV = 44 
+ IBV = 1.255E-07 
+ RS = 4.942 
+ CJO = 4.046E-12 
+ VJ = 0.323 
+ M = 0.4154 
+ FC = 0.5 
+ TT = 0 
+ EG = 0.69 
+ XTI = 2) 
.ENDS
**
.SUBCKT BAS40-05 1 2 3
* The Resistors do not 
* reflect physical devices. 
* Instead they improve modeling
* in the reverse mode of 
* operation.
R1 1 3 6.659E+08 
D1 1 3 BAS40-05 
R2 2 3 6.659E+08
D2 2 3 BAS40-05 
*
.MODEL BAS40-05 D( 
+ IS = 1.419E-08 
+ N = 1.025 
+ BV = 44 
+ IBV = 1.255E-07 
+ RS = 4.942 
+ CJO = 4.046E-12 
+ VJ = 0.323 
+ M = 0.4154 
+ FC = 0.5 
+ TT = 0 
+ EG = 0.69 
+ XTI = 2) 
.ENDS
**
.SUBCKT BAS40-05V 1 2 3 4 5 6
*
* The resistors do not 
* reflect a physical devices. Instead they
* improve modelling in the reverse
* mode of operation.
*
R1 1 6 8E+08
D1 1 6 BAS40-05V 
R2 2 6 8E+08
D2 2 6 BAS40-05V
R3 4 3 8E+08
D3 4 3 BAS40-05V
R4 5 3 8E+08
D4 5 3 BAS40-05V
*
.MODEL BAS40-05V D( 
+ IS = 9.114E-09 
+ N = 1.006 
+ BV = 45 
+ IBV = 7.8E-05 
+ RS = 4.563 
+ CJO = 3.895E-12 
+ VJ = 0.3192 
+ M = 0.4008 
+ FC = 0.5 
+ TT = 0 
+ EG = 0.69 
+ XTI = 2) 
.ENDS
**
.SUBCKT BAS40-05W 1 2 3
* The Resistors do not 
* reflect physical devices. 
* Instead they improve modeling
* in the reverse mode of 
* operation.
R1 1 3 6.659E+08 
D1 1 3 BAS40-05W 
R2 2 3 6.659E+08
D2 2 3 BAS40-05W 
*
.MODEL BAS40-05W D( 
+ IS = 1.419E-08 
+ N = 1.025 
+ BV = 44 
+ IBV = 1.255E-07 
+ RS = 4.942 
+ CJO = 4.046E-12 
+ VJ = 0.323 
+ M = 0.4154 
+ FC = 0.5 
+ TT = 0 
+ EG = 0.69 
+ XTI = 2) 
.ENDS
**
.SUBCKT BAS40-06 1 2 3
* The Resistors do not 
* reflect physical devices. 
* Instead they improve modeling
* in the reverse mode of 
* operation.
R1 3 1 6.659E+08 
D1 3 1 BAS40-06
R2 3 2 6.659E+08
D2 3 2 BAS40-06
*
.MODEL BAS40-06 D( 
+ IS = 1.419E-08 
+ N = 1.025 
+ BV = 44 
+ IBV = 1.255E-07 
+ RS = 4.942 
+ CJO = 4.046E-12 
+ VJ = 0.323 
+ M = 0.4154 
+ FC = 0.5 
+ TT = 0 
+ EG = 0.69 
+ XTI = 2) 
.ENDS
**
.SUBCKT BAS40-06W 1 2 3
* The resistors do not 
* reflect physical devices. 
* Instead they improve modeling
* in the reverse mode of 
* operation.
R1 3 1 6.659E+08 
D1 3 1 BAS40-06W 
R2 3 2 6.659E+08
D2 3 2 BAS40-06W 
*
.MODEL BAS40-06W D( 
+ IS = 1.419E-08 
+ N = 1.025 
+ BV = 44 
+ IBV = 1.255E-07 
+ RS = 4.942 
+ CJO = 4.046E-12 
+ VJ = 0.323 
+ M = 0.4154 
+ FC = 0.5 
+ TT = 0 
+ EG = 0.69 
+ XTI = 2) 
.ENDS
**
.SUBCKT BAS40-07 1 2 3 4
*
* The resistor does not reflect a
* physical devices.  Instead it improves
* modeling in the reverse mode of
* operation.
*
R1 4 1 8E+08
D1 4 1 BAS40-07
R2 3 2 8E+08
D2 3 2 BAS40-07
*
.MODEL BAS40-07 D
+ IS = 8.361E-09
+ N = 1.003
+ BV = 44
+ IBV = 8E-07
+ RS = 5.031
+ CJO = 3.8E-12
+ VJ = 0.1119
+ M = 0.2915
+ FC = 1
+ EG = 0.69
+ XTI = 2
.ENDS
**
.SUBCKT BAS40-07V 1 3 4 6
*
* The resistor does not reflect a
* physical devices.  Instead it improves
* modeling in the reverse mode of
* operation.
*
R1 1 6 8E+08
D1 1 6 BAS40-07V
R2 4 3 8E+08
D2 4 3 BAS40-07V

*
.MODEL BAS40-07V D
+ IS = 8.361E-09
+ N = 1.003
+ BV = 44
+ IBV = 8E-07
+ RS = 5.031
+ CJO = 3.8E-12
+ VJ = 0.1119
+ M = 0.2915
+ FC = 1
+ EG = 0.69
+ XTI = 2
.ENDS
**
.SUBCKT BAS40H 1 2
*
* The Resistor R1 does not reflect 
* a physical device.  Instead it
* improves modeling in the reverse 
* mode of operation.
*
R1 1 2 8E+08
D1 1 2 BAS40H
*
.MODEL BAS40H D
+ IS = 8.361E-09
+ N = 1.003
+ BV = 44
+ IBV = 8E-07
+ RS = 5.031
+ CJO = 3.8E-12
+ VJ = 0.1119
+ M = 0.2915
+ FC = 1
+ EG = 0.69
+ XTI = 2
.ENDS
**
.SUBCKT BAS40L 1 2
*
* The Resistor R1 does not reflect 
* a physical device. Instead it
* improves modeling in the reverse 
* mode of operation.
*
R1 2 1 8E+08
D1 2 1 BAS40L
*
.MODEL BAS40L D 
+ IS = 9.114E-9 
+ N = 1.006 
+ BV = 45 
+ IBV = 7.8E-5 
+ RS = 4.563 
+ CJO = 3.895E-12 
+ VJ = 0.3192 
+ M = 0.4008 
+ FC = 0.5 
+ EG = 0.69 
+ XTI = 2 
.ENDS
**
.SUBCKT BAS40 1 3 
* The Resistor R1 does not 
* reflect a physical device. 
* Instead it improves modeling
* in the reverse mode of 
* operation.
R1 1 3 6.659E+08 
D1 1 3 BAS40 
*
.MODEL BAS40 D( 
+ IS = 1.419E-08 
+ N = 1.025 
+ BV = 44 
+ IBV = 1.255E-07 
+ RS = 4.942 
+ CJO = 4.046E-12 
+ VJ = 0.323 
+ M = 0.4154 
+ FC = 0.5 
+ TT = 0 
+ EG = 0.69 
+ XTI = 2) 
.ENDS
**
.SUBCKT BAS40W 1 3 
* The Resistor R1 does not 
* reflect a physical device. 
* Instead it improves modeling
* in the reverse mode of 
* operation.
R1 1 3 6.659E+08 
D1 1 3 BAS40W 
*
.MODEL BAS40W D( 
+ IS = 1.419E-08 
+ N = 1.025 
+ BV = 44 
+ IBV = 1.255E-07 
+ RS = 4.942 
+ CJO = 4.046E-12 
+ VJ = 0.323 
+ M = 0.4154 
+ FC = 0.5 
+ TT = 0 
+ EG = 0.69 
+ XTI = 2) 
.ENDS
**
.SUBCKT BAS40XY 1 2 3 4 5 6
*
* The Resistors do not 
* reflect physical devices. 
* Instead they improve modeling
* in the reverse mode of 
* operation.
*
R1 1 6 8E+08
D1 1 6 BAS40XY
R2 6 2 8E+08
D2 6 2 BAS40XY
R3 3 5 8E+08
D3 3 5 BAS40XY
R4 4 3 8E+08
D4 4 3 BAS40XY
*
.MODEL BAS40XY D
+ IS = 8.361E-09
+ N = 1.003
+ BV = 44
+ IBV = 8E-07
+ RS = 5.031
+ CJO = 3.8E-12
+ VJ = 0.1119
+ M = 0.2915
+ FC = 1
+ EG = 0.69
+ XTI = 2
.ENDS
**
.SUBCKT BAS70-04 1 2 3
* The Resistors do not 
* reflect physical devices. 
* Instead they improve modeling
* in the reverse mode of 
* operation.
R1 1 3 1.409E+09 
D1 1 3 BAS70
R2 3 2 1.409E+09 
D2 3 2 BAS70
.MODEL BAS70 D( 
+ IS = 3.22E-09 
+ N = 1.018 
+ BV = 77
+ IBV = 1.67E-07 
+ RS = 20.89 
+ CJO = 1.655E-12 
+ VJ = 0.349
+ M = 0.3583
+ FC = 0.5 
+ TT = 0 
+ EG = 0.69 
+ XTI = 2) 
.ENDS
**
.SUBCKT BAS70-04W 1 2 3
* The Resistors do not 
* reflect physical devices. 
* Instead they improve modeling
* in the reverse mode of 
* operation.
R1 1 3 1.409E+09 
D1 1 3 BAS70W
R2 3 2 1.409E+09 
D2 3 2 BAS70W
*
.MODEL BAS70W D( 
+ IS = 3.22E-09 
+ N = 1.018 
+ BV = 77
+ IBV = 1.67E-07 
+ RS = 20.89 
+ CJO = 1.655E-12 
+ VJ = 0.349
+ M = 0.3583
+ FC = 0.5 
+ TT = 0 
+ EG = 0.69 
+ XTI = 2) 
.ENDS
**
.SUBCKT BAS70-05 1 2 3
* The Resistors do not 
* reflect physical devices. 
* Instead they improve modeling
* in the reverse mode of 
* operation.
R1 1 3 1.409E+09 
D1 1 3 BAS70
R2 2 3 1.409E+09 
D2 2 3 BAS70
.MODEL BAS70 D( 
+ IS = 3.22E-09 
+ N = 1.018 
+ BV = 77
+ IBV = 1.67E-07 
+ RS = 20.89 
+ CJO = 1.655E-12 
+ VJ = 0.349
+ M = 0.3583
+ FC = 0.5 
+ TT = 0 
+ EG = 0.69 
+ XTI = 2) 
.ENDS
**
.SUBCKT BAS70-05W 1 2 3
* The Resistors do not 
* reflect physical devices. 
* Instead they improve modeling
* in the reverse mode of 
* operation.
R1 1 3 1.409E+09 
D1 1 3 BAS70W
R2 2 3 1.409E+09 
D2 2 3 BAS70W
.MODEL BAS70W D( 
+ IS = 3.22E-09 
+ N = 1.018 
+ BV = 77
+ IBV = 1.67E-07 
+ RS = 20.89 
+ CJO = 1.655E-12 
+ VJ = 0.349
+ M = 0.3583
+ FC = 0.5 
+ TT = 0 
+ EG = 0.69 
+ XTI = 2) 
.ENDS
**
.SUBCKT BAS70-06 1 2 3
* The Resistors do not 
* reflect physical devices. 
* Instead they improve modeling
* in the reverse mode of 
* operation.
R1 3 1 1.409E+09 
D1 3 1 BAS70
R2 3 2 1.409E+09 
D2 3 2 BAS70
.MODEL BAS70 D( 
+ IS = 3.22E-09 
+ N = 1.018 
+ BV = 77
+ IBV = 1.67E-07 
+ RS = 20.89 
+ CJO = 1.655E-12 
+ VJ = 0.349
+ M = 0.3583
+ FC = 0.5 
+ TT = 0 
+ EG = 0.69 
+ XTI = 2) 
.ENDS
**
.SUBCKT BAS70-06W 1 2 3
* The Resistors do not 
* reflect physical devices. 
* Instead they improve modeling
* in the reverse mode of 
* operation.
R1 3 1 1.409E+09 
D1 3 1 BAS70W
R2 3 2 1.409E+09 
D2 3 2 BAS70W
.MODEL BAS70 D( 
+ IS = 3.22E-09 
+ N = 1.018 
+ BV = 77
+ IBV = 1.67E-07 
+ RS = 20.89 
+ CJO = 1.655E-12 
+ VJ = 0.349
+ M = 0.3583
+ FC = 0.5 
+ TT = 0 
+ EG = 0.69 
+ XTI = 2) 
.ENDS
**
.SUBCKT BAS70-07 1 2 3 4
* The Resistors do not 
* reflect physical devices. 
* Instead they improve modeling
* in the reverse mode of 
* operation.
R1 4 1 1.409E+09 
D1 4 1 BAS70
R2 3 2 1.409E+09 
D2 3 2 BAS70
.MODEL BAS70 D( 
+ IS = 3.22E-09 
+ N = 1.018 
+ BV = 77
+ IBV = 1.67E-07 
+ RS = 20.89 
+ CJO = 1.655E-12 
+ VJ = 0.349
+ M = 0.3583
+ FC = 0.5 
+ TT = 0 
+ EG = 0.69 
+ XTI = 2) 
.ENDS
**
.SUBCKT BAS70-07V 1 3 4 6
*
R1 1 6 1.409E+09
D1 1 6 BAS70-07V
R2 4 3 1.409E+09
D2 4 3 BAS70-07V
*
.MODEL BAS70-07V D
+ IS = 3.22E-09 
+ N = 1.018     
+ BV = 77       
+ IBV = 1.67E-07
+ RS = 20.89    
+ CJO = 1.655E-12
+ VJ = 0.349    
+ M = 0.3583    
+ FC = 0.5      
+ TT = 0
+ EG = 0.69     
+ XTI = 2       
.ENDS*
.SUBCKT BAS70H 1 2
*
* The Resistor R1 does not reflect 
* a physical device.  Instead it
* improves modeling in the reverse 
* mode of operation.
*
R1 1 2 1.409E+09
D1 1 2 BAS70H
*
.MODEL BAS70H D
+ IS = 3.22E-09 
+ N = 1.018     
+ BV = 77       
+ IBV = 1.67E-07
+ RS = 20.89    
+ CJO = 1.655E-12
+ VJ = 0.349    
+ M = 0.3583    
+ FC = 0.5      
+ EG = 0.69     
+ XTI = 2       
.ENDS
**
.SUBCKT BAS70L 1 2 
*
* The Resistor R1 does not reflect 
* a physical device. Instead it
* improves modeling in the reverse 
* mode of operation.
*
R1 1 2 1.409E+9 
D1 1 2 BAS70L 
*
.MODEL BAS70L D 
+ IS = 3.22E-9 
+ N = 1.018 
+ BV = 77 
+ IBV = 1.67E-7 
+ RS = 20.89 
+ CJO = 1.608E-12 
+ VJ = 0.3891 
+ M = 0.3683 
+ FC = 0.5 
+ EG = 0.69 
+ XTI = 2 
.ENDS
**
.SUBCKT BAS70 1 3 
* The Resistor R1 does not reflect 
* a physical device.  Instead it 
* improves modeling in the reverse
* mode of operation.
R1 1 3 1.409E+09 
D1 1 3 BAS70 
.MODEL BAS70 D( 
+ IS = 3.22E-09 
+ N = 1.018 
+ BV = 77
+ IBV = 1.67E-07 
+ RS = 20.89 
+ CJO = 1.655E-12 
+ VJ = 0.349
+ M = 0.3583
+ FC = 0.5 
+ TT = 0 
+ EG = 0.69 
+ XTI = 2) 
.ENDS
**
.SUBCKT BAS70VV 1 2 3 4 5 6
*
* The Resistors do not 
* reflect physical devices. 
* Instead they improve modeling
* in the reverse mode of 
* operation.
*
R1 1 6 1.409E+09
D1 1 6 BAS70VV
R2 2 5 1.409E+09
D2 2 5 BAS70VV
R3 3 4 1.409E+09
D3 3 4 BAS70VV
*
.MODEL BAS70VV D
+ IS = 3.22E-09
+ N = 1.018
+ BV = 77 
+ IBV = 1.67E-07
+ RS = 20.89 
+ CJO = 1.655E-12
+ VJ = 0.349 
+ M = 0.3583 
+ FC = 0.5 
+ EG = 0.69 
+ XTI = 2 
.ENDS
**
.SUBCKT BAS70W 1 3 
* The Resistor R1 does not reflect 
* a physical device.  Instead it 
* improves modeling in the reverse
* mode of operation.
R1 1 3 1.409E+09 
D1 1 3 BAS70W  
.MODEL BAS70W D( 
+ IS = 3.22E-09 
+ N = 1.018 
+ BV = 77
+ IBV = 1.67E-07 
+ RS = 20.89 
+ CJO = 1.655E-12 
+ VJ = 0.349
+ M = 0.3583
+ FC = 0.5 
+ TT = 0 
+ EG = 0.69 
+ XTI = 2) 
.ENDS
**
.SUBCKT BAS70XY 1 2 3 4 5 6
*
* The Resistors do not 
* reflect physical devices. 
* Instead they improve modeling
* in the reverse mode of 
* operation.
*
R1 1 6 1.409E+9
D1 1 6 BAS70XY
R2 6 2 1.409E+9
D2 6 2 BAS70XY
R3 3 5 1.409E+9
D3 3 5 BAS70XY
R4 4 3 1.409E+9
D4 4 3 BAS70XY
*
.MODEL BAS70XY D
+ IS = 3.22E-9 
+ N = 1.018     
+ BV = 77       
+ IBV = 1.67E-7
+ RS = 20.89    
+ CJO = 1.655E-12
+ VJ = 0.349    
+ M = 0.3583    
+ FC = 0.5      
+ EG = 0.69     
+ XTI = 2       
.ENDS
**
.SUBCKT BAT120A 1 3 4
* The resistors do not reflect 
* physical devices.  Instead they
* improve modeling in the reverse
* mode of operation.
R1 4 1 2.56E+05 
D1 4 1 BAT120A
R2 4 3 2.56E+05 
D2 4 3 BAT120A
.MODEL BAT120A (D 
+ IS = 6.984E-06 
+ N = 1.023 
+ BV = 30 
+ IBV = 0.0002402 
+ RS = 0.1574 
+ CJO = 3.075E-10 
+ VJ = 0.6615 
+ M = 0.6098 
+ FC = 0.5 
+ TT = 0 
+ EG = 0.69 
+ XTI = 2 )
.ENDS
**
.SUBCKT BAT120C 1 3 4
* The resistors do not reflect 
* physical devices.  Instead they
* improve modeling in the reverse
* mode of operation.
R1 1 4 2.56E+05 
D1 1 4 BAT120C
R2 3 4 2.56E+05 
D2 3 4 BAT120C
.MODEL BAT120C (D 
+ IS = 6.984E-06 
+ N = 1.023 
+ BV = 30 
+ IBV = 0.0002402 
+ RS = 0.1574 
+ CJO = 3.075E-10 
+ VJ = 0.6615 
+ M = 0.6098 
+ FC = 0.5 
+ TT = 0 
+ EG = 0.69 
+ XTI = 2 )
.ENDS
**
.SUBCKT BAT120S 1 3 4
* The resistor do not reflect 
* physical devices.  Instead they
* improve modeling in the reverse
* mode of operation.
R1 1 4 2.56E+05 
D1 1 4 BAT120S
R2 4 3 2.56E+05 
D2 4 3 BAT120S
.MODEL BAT120S (D 
+ IS = 6.984E-06 
+ N = 1.023 
+ BV = 30 
+ IBV = 0.0002402 
+ RS = 0.1574 
+ CJO = 3.075E-10 
+ VJ = 0.6615 
+ M = 0.6098 
+ FC = 0.5 
+ TT = 0 
+ EG = 0.69 
+ XTI = 2 )
.ENDS
**
.SUBCKT BAT160A 1 2 3 4
*
* The resistors do not reflect 
* physical devices. Instead they
* improve modeling in the reverse 
* mode of operation.
*
R1 4 1 1E+7
D1 4 1 BAT160A
R1 4 3 1E+7
D1 4 3 BAT160A
*
.MODEL BAT160A D
+ IS = 5E-7
+ N = 0.9751
+ BV = 66
+ IBV = 0.0004
+ RS = 0.3422
+ CJO = 1.75E-10
+ VJ = 0.3761
+ M = 0.4725
+ FC = 0.5
+ EG = 0.69
+ XTI = 2
.ENDS
**
.SUBCKT BAT160C 1 2 3 4
*
* The resistors do not reflect 
* physical devices. Instead they
* improve modeling in the reverse 
* mode of operation.
*
R1 1 4 1E+7
D1 1 4 BAT160C
R1 3 4 1E+7
D1 3 4 BAT160C
*
.MODEL BAT160C D
+ IS = 5E-7
+ N = 0.9751
+ BV = 66
+ IBV = 0.0004
+ RS = 0.3422
+ CJO = 1.75E-10
+ VJ = 0.3761
+ M = 0.4725
+ FC = 0.5
+ EG = 0.69
+ XTI = 2
.ENDS
**
.SUBCKT BAT160S 1 2 3 4
*
* The resistors do not reflect 
* physical devices. Instead they
* improve modeling in the reverse 
* mode of operation.
*
R1 1 4 1E+7
D1 1 4 BAT160S
R1 4 3 1E+7
D1 4 3 BAT160S
*
.MODEL BAT160S D
+ IS = 5E-7
+ N = 0.9751
+ BV = 66
+ IBV = 0.0004
+ RS = 0.3422
+ CJO = 1.75E-10
+ VJ = 0.3761
+ M = 0.4725
+ FC = 0.5
+ EG = 0.69
+ XTI = 2
.ENDS
**
.SUBCKT BAT17 1 2 3
*
* The Resistor R1 does not reflect 
* a physical device.  Instead it
* improves modeling in the reverse 
* mode of operation.
*
R1 1 3 6E+07
D1 1 3 BAT17
*
.MODEL BAT17 D 
+ IS = 1.419E-09 
+ N = 1.022 
+ BV = 6 
+ IBV = 2.45E-06 
+ RS = 5.112 
+ CJO = 7.867E-13 
+ VJ = 0.1043 
+ M = 0.1439 
+ FC = 0.5 
+ TT = 0 
+ EG = 0.69 
+ XTI = 2 
.ENDS
**
.SUBCKT BAT54A 1 2 3
* The resistors do not reflect 
* physical devices.  Instead they
* improve modeling in the reverse 
* mode of operation.
*
R1 3 1 3.6E+07 
D1 3 1 BAT54A
R2 3 2 3.6E+07
D2 3 2 BAT54A 
*
.MODEL BAT54A D(
+    IS = 2.117E-07 
+    N = 1.016 
+    BV = 36 
+    IBV = 1.196E-06 
+    RS = 2.637 
+    CJO = 1.114E-11 
+    VJ = 0.2013 
+    M = 0.3868 
+    FC = 0 
+    TT = 0 
+    EG = 0.69 
+    XTI = 2)
**
.SUBCKT BAT54AW 1 2 3
* The resistors do not reflect 
* physical devices.  Instead they
* improve modeling in the reverse 
* mode of operation.
*
R1 3 1 3.6E+07 
D1 3 1 BAT54AW
R2 3 2 3.6E+07
D2 3 2 BAT54AW 
*
.MODEL BAT54AW D( 
+    IS = 2.117E-07 
+    N = 1.016 
+    BV = 36 
+    IBV = 1.196E-06 
+    RS = 2.637 
+    CJO = 1.114E-11 
+    VJ = 0.2013 
+    M = 0.3868 
+    FC = 0 
+    TT = 7E-9 
+    EG = 0.69 
+    XTI = 2) 
**
.SUBCKT BAT54CM 1 2 3
*
* The resistors do not reflect 
* physical devices.  Instead they
* improve modeling in the reverse 
* mode of operation.
*
R1 1 3 3.6E+07 
D1 1 3 BAT54CM
R2 2 3 3.6E+07
D2 2 3 BAT54CM
*
.MODEL BAT54CM D 
+ IS = 2.117E-07 
+ N = 1.016 
+ BV = 36 
+ IBV = 1.196E-06 
+ RS = 2.637 
+ CJO = 1.114E-11 
+ VJ = 0.2013 
+ M = 0.3868 
+ FC = 0.5 
+ EG = 0.69 
+ XTI = 2
.ENDS
**
.SUBCKT BAT54C 1 2 3
* The resistors do not reflect 
* physical devices.  Instead they
* improve modeling in the reverse 
* mode of operation.
*
R1 1 3 3.6E+07 
D1 1 3 BAT54C
R2 2 3 3.6E+07
D2 2 3 BAT54C
*
.MODEL BAT54C D( 
+    IS = 2.117E-07 
+    N = 1.016 
+    BV = 36 
+    IBV = 1.196E-06 
+    RS = 2.637 
+    CJO = 1.114E-11 
+    VJ = 0.2013 
+    M = 0.3868 
+    FC = 0 
+    TT = 0 
+    EG = 0.69 
+    XTI = 2) 
**
.SUBCKT BAT54CV 1 2 3 4 5 6
*
* The Resistors do not 
* reflect physical devices. 
* Instead they improve modeling
* in the reverse mode of 
* operation.*
*
R1 1 6 3.6E+7 
D1 1 6 BAT54CV
R2 2 6 3.6E+7 
D2 2 6 BAT54CV
R3 4 3 3.6E+7 
D3 4 3 BAT54CV
R4 5 3 3.6E+7 
D4 5 3 BAT54CV
*
.MODEL BAT54CV D 
+ IS = 2.117E-7 
+ N = 1.016 
+ BV = 36 
+ IBV = 1.196E-6 
+ RS = 2.637 
+ CJO = 1.114E-11 
+ VJ = 0.2013 
+ M = 0.3868 
+ FC = 0.5 
+ EG = 0.69 
+ XTI = 2
.ENDS
**
.SUBCKT BAT54CW 1 2 3
* The resistors do not reflect 
* physical devices.  Instead they
* improve modeling in the reverse 
* mode of operation.
*
R1 1 3 3.6E+07 
D1 1 3 BAT54CW
R2 2 3 3.6E+07