*
**********************************************************
*
* 2PA1576Q
*
* NXP Semiconductors
*
* General purpose PNP transistor
* IC   = 150 mA
* VCEO = 50 V 
* hFE  = 120 - 270 @ 6V/1mA
* 
*
* 
* Package: SOT 323
* 
* Package Pin 1: Base
* Package Pin 2: Emitter
* Package Pin 3: Collector
* 
* 
* 
* Simulator: Spice 2  
*  
**********************************************************
*#
.MODEL Q2PA1576Q PNP
+     IS=1.604E-14
+     NF=0.9982
+     ISE=3.351E-15
+     NE=1.397
+     BF=212.1
+     IKF=0.08039
+     VAF=37.2
+     NR=1.006
+     ISC=1.842E-14
+     NC=1.2  
+     BR=7.351
+     IKR=0.047
+     VAR=11.42
+     RB=1
+     IRB=1E-06
+     RBM=1  
+     RE=0.692
+     RC=0.6886
+     XTB=0
+     EG=1.11
+     XTI=3
+     CJE=1.307E-11
+     VJE=0.7282
+     MJE=0.396
+     TF=6.839E-10
+     XTF=9.882
+     VTF=5.669  
+     ITF=0.2739
+     PTF=0
+     CJC=6.848E-12
+     VJC=0.364
+     MJC=0.3835  
+     XCJC=0.6288
+     TR=1E-32
+     CJS=0
+     VJS=0.75
+     MJS=0.333
+     FC=0.99 
.ENDS
**
**********************************************************
*
* 2PA1576R
*
* NXP Semiconductors
*
* General purpose PNP transistor
* IC   = 150 mA
* VCEO = 50 V 
* hFE  = 180 - 390 @ 6V/1mA
*
*
*
* Package: SOT 323
* 
* Package Pin 1: Base
* Package Pin 2: Emitter
* Package Pin 3: Collector
*  
* 
* 
* Simulator: Spice 2        
*
**********************************************************
*#
.MODEL Q2PA1576R PNP 
+     IS=2.514E-14
+     NF=0.9978
+     ISE=5.697E-15
+     NE=1.421
+     BF=315.5  
+     IKF=0.08039
+     VAF=40.01
+     NR=1.001
+     ISC=2.533E-14
+     NC=1.25  
+     BR=9.217
+     IKR=0.047
+     VAR=32.02
+     RB=1
+     IRB=1E-06
+     RBM=1  
+     RE=0.6308
+     RC=0.956
+     XTB=0
+     EG=1.11
+     XTI=3
+     CJE=1.17E-11  
+     VJE=0.746
+     MJE=0.4143
+     TF=6.328E-10
+     XTF=6.555
+     VTF=2.416  
+     ITF=0.129
+     PTF=0
+     CJC=6.96E-12
+     VJC=0.778
+     MJC=0.6596  
+     XCJC=0.6288
+     TR=1E-32
+     CJS=0
+     VJS=0.75
+     MJS=0.333
+     FC=0.79 
.ENDS
**
**********************************************************
*
* 2PA1576S
*
* NXP Semiconductors
*
* General purpose PNP transistor
* IC   = 150 mA
* VCEO = 50 V 
* hFE  = 270 - 560 @ 6V/1mA
*
*
*
* Package: SOT 323
* 
* Package Pin 1: Base
* Package Pin 2: Emitter
* Package Pin 3: Collector
* 
* 
* 
* Simulator: Spice 2        
*
**********************************************************
*#
.MODEL Q2PA1576S PNP
+     IS=2.515E-14
+     NF=0.993
+     ISE=3.596E-15
+     NE=1.414
+     BF=406.2 
+     IKF=0.08039
+     VAF=27.54
+     NR=0.998
+     ISC=5.876E-15
+     NC=1.15  
+     BR=12.22
+     IKR=0.02471
+     VAR=9.183
+     RB=1
+     IRB=1E-06
+     RBM=1  
+     RE=0.5387
+     RC=0.6883
+     XTB=0
+     EG=1.11
+     XTI=3
+     CJE=1.117E-11 
+     VJE=0.775
+     MJE=0.432
+     TF=5.807E-10
+     XTF=4.339
+     VTF=7.041
+     ITF=0.1482
+     PTF=0
+     CJC=7.054E-12
+     VJC=0.678
+     MJC=0.6696  
+     XCJC=0.6288
+     TR=1E-32
+     CJS=0
+     VJS=0.75
+     MJS=0.333
+     FC=0.8101
.ENDS
**
**********************************************************
*
* 2PA1774QM
*
* NXP Semiconductors
*
* General purpose PNP transistor
* IC   = 200 mA
* VCEO = 40 V 
* hFE  = 120 - 270 @ 6V/1mA
*
*
*
* Package: SOT 883
* 
* Package Pin 1: Base
* Package Pin 2: Emitter
* Package Pin 3: Collector
*
*  
* Extraction date (week/year): 30/2003         
* Simulator: Spice 3
*
**********************************************************
*#
.MODEL Q2PA1774QM PNP 
+ IS = 1.242E-014 
+ NF = 0.9861 
+ ISE = 5.393E-015 
+ NE = 1.456 
+ BF = 260 
+ IKF = 0.09 
+ VAF = 39.15 
+ NR = 0.9839 
+ ISC = 1.252E-014 
+ NC = 1.088 
+ BR = 13 
+ IKR = 0.02 
+ VAR = 9.5 
+ RB = 280 
+ IRB = 6E-005 
+ RBM = 1.4 
+ RE = 0.54 
+ RC = 0.41 
+ XTB = 0 
+ EG = 1.11 
+ XTI = 3 
+ CJE = 1.197E-011 
+ VJE = 1.115 
+ MJE = 0.4583 
+ TF = 6.3E-010 
+ XTF = 7 
+ VTF = 7 
+ ITF = 0.14 
+ PTF = 0 
+ CJC = 6.828E-012 
+ VJC = 0.5859 
+ MJC = 0.44 
+ XCJC = 0.6288 
+ TR = 7.2E-008 
+ CJS = 0 
+ VJS = 0.75 
+ MJS = 0.333 
+ FC = 0.7059 
.ENDS
**
**********************************************************
*
* 2PA1774Q
*
* NXP Semiconductors
*
* General purpose PNP transistor
* IC   = 150 mA
* VCEO = 50 V 
* hFE  = 120 - 270 @ 6V/1mA
*
*
*
* Package: SOT 416
* 
* Package Pin 1: Base
* Package Pin 2: Emitter
* Package Pin 3: Collector
*
*  
*      
* Simulator: Spice 2  
*
**********************************************************
*#
.MODEL Q2PA1774Q PNP 
+ IS = 1.242E-014 
+ NF = 0.9861 
+ ISE = 5.393E-015 
+ NE = 1.456 
+ BF = 260 
+ IKF = 0.09 
+ VAF = 39.15 
+ NR = 0.9839 
+ ISC = 1.252E-014 
+ NC = 1.088 
+ BR = 13 
+ IKR = 0.02 
+ VAR = 9.5 
+ RB = 280 
+ IRB = 6E-005 
+ RBM = 1.4 
+ RE = 0.54 
+ RC = 0.41 
+ XTB = 0 
+ EG = 1.11 
+ XTI = 3 
+ CJE = 1.197E-011 
+ VJE = 1.115 
+ MJE = 0.4583 
+ TF = 6.3E-010 
+ XTF = 7 
+ VTF = 7 
+ ITF = 0.14 
+ PTF = 0 
+ CJC = 6.828E-012 
+ VJC = 0.5859 
+ MJC = 0.44 
+ XCJC = 0.6288 
+ TR = 7.2E-008 
+ CJS = 0 
+ VJS = 0.75 
+ MJS = 0.333 
+ FC = 0.7059 
.ENDS
**
**********************************************************
*
* 2PA1774RM
*
* NXP Semiconductors
*
* General purpose PNP transistor
* IC   = 100 mA
* VCEO = 40 V 
* hFE  = 180 - 390 @ 6V/1mA
*
*
*
* Package: SOT 883
* 
* Package Pin 1: Base
* Package Pin 2: Emitter
* Package Pin 3: Collector
*
*  
* Extraction date (week/year): 30/2003       
* Simulator: Spice 3  
*
**********************************************************
*#
.MODEL Q2PA1774RM PNP 
+ IS = 1.366E-014 
+ NF = 0.9882 
+ ISE = 4.769E-015 
+ NE = 1.495 
+ BF = 295 
+ IKF = 0.08 
+ VAF = 39.15 
+ NR = 0.9847 
+ ISC = 5.554E-015 
+ NC = 1.144 
+ BR = 11 
+ IKR = 0.025 
+ VAR = 9.5 
+ RB = 280 
+ IRB = 6E-005 
+ RBM = 1.4 
+ RE = 0.54 
+ RC = 0.41 
+ XTB = 0 
+ EG = 1.11 
+ XTI = 3 
+ CJE = 1.197E-011 
+ VJE = 1.044 
+ MJE = 0.4465 
+ TF = 5.3E-010 
+ XTF = 7 
+ VTF = 7 
+ ITF = 0.2108 
+ PTF = 0 
+ CJC = 6.828E-012 
+ VJC = 0.729 
+ MJC = 0.44 
+ XCJC = 0.6288 
+ TR = 5.5E-008 
+ CJS = 0 
+ VJS = 0.75 
+ MJS = 0.333 
+ FC = 0.9059 
.ENDS
**
**********************************************************
*
* 2PA1774R
*
* NXP Semiconductors
*
* General purpose PNP transistor
* IC   = 150 mA
* VCEO = 50 V 
* hFE  = 180 - 390 @ 6V/1mA
*
*
*
* Package: SOT 416
* 
* Package Pin 1: Base
* Package Pin 2: Emitter
* Package Pin 3: Collector
*
*  
*        
* Simulator: Spice 2 
*
**********************************************************
*#
.MODEL Q2PA1774R PNP 
+ IS = 1.366E-014 
+ NF = 0.9882 
+ ISE = 4.769E-015 
+ NE = 1.495 
+ BF = 295 
+ IKF = 0.08 
+ VAF = 39.15 
+ NR = 0.9847 
+ ISC = 5.554E-015 
+ NC = 1.144 
+ BR = 11 
+ IKR = 0.025 
+ VAR = 9.5 
+ RB = 280 
+ IRB = 6E-005 
+ RBM = 1.4 
+ RE = 0.54 
+ RC = 0.41 
+ XTB = 0 
+ EG = 1.11 
+ XTI = 3 
+ CJE = 1.197E-011 
+ VJE = 1.044 
+ MJE = 0.4465 
+ TF = 5.3E-010 
+ XTF = 7 
+ VTF = 7 
+ ITF = 0.2108 
+ PTF = 0 
+ CJC = 6.828E-012 
+ VJC = 0.729 
+ MJC = 0.44 
+ XCJC = 0.6288 
+ TR = 5.5E-008 
+ CJS = 0 
+ VJS = 0.75 
+ MJS = 0.333 
+ FC = 0.9059 
.ENDS
**
**********************************************************
*
* 2PA1774SM
*
* NXP Semiconductors
*
* General purpose PNP transistor
* IC   = 100 mA
* VCEO = 40 V 
* hFE  = 270 - 560 @ 6V/1mA
*
*
*
* Package: SOT 883
* 
* Package Pin 1: Base
* Package Pin 2: Emitter
* Package Pin 3: Collector
*
*
* Extraction date (week/year): 30/2003  
* Simulator: Spice 3        
*
**********************************************************
*#
.MODEL Q2PA1774SM PNP 
+ IS = 1.366E-014 
+ NF = 0.9882 
+ ISE = 4.769E-015 
+ NE = 1.495 
+ BF = 295 
+ IKF = 0.08 
+ VAF = 39.15 
+ NR = 0.9847 
+ ISC = 2.229E-014 
+ NC = 1.193 
+ BR = 9 
+ IKR = 0.025 
+ VAR = 9.5 
+ RB = 280 
+ IRB = 6E-005 
+ RBM = 1.4 
+ RE = 0.54 
+ RC = 0.41 
+ XTB = 0 
+ EG = 1.11 
+ XTI = 3 
+ CJE = 1.197E-011 
+ VJE = 1.004 
+ MJE = 0.4497 
+ TF = 6.2E-010 
+ XTF = 7 
+ VTF = 7 
+ ITF = 0.15 
+ PTF = 0 
+ CJC = 6.828E-012 
+ VJC = 0.4178 
+ MJC = 0.44 
+ XCJC = 0.6288 
+ TR = 6E-008 
+ CJS = 0 
+ VJS = 0.75 
+ MJS = 0.333 
+ FC = 0.9059 
.ENDS
**
**********************************************************
*
* 2PA1774S
*
* NXP Semiconductors
*
* General purpose PNP transistor
* IC   = 150 mA
* VCEO = 50 V 
* hFE  = 270 - 560 @ 6V/1mA
*
*
*
* Package: SOT 416
* 
* Package Pin 1: Base
* Package Pin 2: Emitter
* Package Pin 3: Collector
*
*
*  
* Simulator: Spice 2        
*
**********************************************************
*#
.MODEL Q2PA1774S PNP 
+ IS = 1.366E-014 
+ NF = 0.9882 
+ ISE = 4.769E-015 
+ NE = 1.495 
+ BF = 295 
+ IKF = 0.08 
+ VAF = 39.15 
+ NR = 0.9847 
+ ISC = 2.229E-014 
+ NC = 1.193 
+ BR = 9 
+ IKR = 0.025 
+ VAR = 9.5 
+ RB = 280 
+ IRB = 6E-005 
+ RBM = 1.4 
+ RE = 0.54 
+ RC = 0.41 
+ XTB = 0 
+ EG = 1.11 
+ XTI = 3 
+ CJE = 1.197E-011 
+ VJE = 1.004 
+ MJE = 0.4497 
+ TF = 6.2E-010 
+ XTF = 7 
+ VTF = 7 
+ ITF = 0.15 
+ PTF = 0 
+ CJC = 6.828E-012 
+ VJC = 0.4178 
+ MJC = 0.44 
+ XCJC = 0.6288 
+ TR = 6E-008 
+ CJS = 0 
+ VJS = 0.75 
+ MJS = 0.333 
+ FC = 0.9059 
.ENDS
**
**********************************************************
*
* 2PB1219AQ
*
* NXP Semiconductors
*
* General purpose PNP transistor
* IC   = 500 mA
* VCEO = 50 V 
* hFE  = 85 - 170 @ 10V/150mA
*
*
*
* Package: SOT 323
* 
* Package Pin 1: Base
* Package Pin 2: Emitter
* Package Pin 3: Collector
*
* 
* 
* Simulator: Spice 3        
*
**********************************************************
*#
.MODEL Q2PB1219AQ PNP 
+ IS = 6.637E-014 
+ NF = 0.9909 
+ ISE = 3.699E-015 
+ NE = 1.352 
+ BF = 191 
+ IKF = 0.1868 
+ VAF = 3.066 
+ NR = 0.992 
+ ISC = 2.511E-014 
+ NC = 1.152 
+ BR = 16 
+ IKR = 0.8297 
+ VAR = 20 
+ RB = 11 
+ IRB = 0.00015 
+ RBM = 1.6 
+ RE = 0.145 
+ RC = 0.09035 
+ XTB = 0 
+ EG = 1.11 
+ XTI = 3 
+ CJE = 6.039E-011 
+ VJE = 0.7603 
+ MJE = 0.3903 
+ TF = 1.167E-009 
+ XTF = 25 
+ VTF = 2 
+ ITF = 2.81 
+ PTF = 0 
+ CJC = 2.653E-011 
+ VJC = 0.1704 
+ MJC = 0.3 
+ XCJC = 1 
+ TR = 1.4E-008 
+ CJS = 0 
+ VJS = 0.75 
+ MJS = 0.333 
+ FC = 0.9259 
.ENDS
**
**********************************************************
*
* 2PB1219AR
*
* NXP Semiconductors
*
* General purpose PNP transistor
* IC   = 500 mA
* VCEO = 50 V 
* hFE  = 120 - 240 @ 10V/150mA
*
*
*
* Package: SOT 323
* 
* Package Pin 1: Base
* Package Pin 2: Emitter
* Package Pin 3: Collector
*
* 
* 
* Simulator: Spice 2        
*
**********************************************************
*#
.MODEL Q2PB1219AR PNP 
+ IS = 6.637E-014 
+ NF = 0.9909 
+ ISE = 3.699E-015 
+ NE = 1.352 
+ BF = 191 
+ IKF = 0.1868 
+ VAF = 3.066 
+ NR = 0.992 
+ ISC = 2.511E-014 
+ NC = 1.152 
+ BR = 16 
+ IKR = 0.8297 
+ VAR = 20 
+ RB = 11 
+ IRB = 0.00015 
+ RBM = 1.6 
+ RE = 0.145 
+ RC = 0.09035 
+ XTB = 0 
+ EG = 1.11 
+ XTI = 3 
+ CJE = 6.039E-011 
+ VJE = 0.7603 
+ MJE = 0.3903 
+ TF = 1.167E-009 
+ XTF = 25 
+ VTF = 2 
+ ITF = 2.81 
+ PTF = 0 
+ CJC = 2.653E-011 
+ VJC = 0.1704 
+ MJC = 0.3 
+ XCJC = 1 
+ TR = 1.4E-008 
+ CJS = 0 
+ VJS = 0.75 
+ MJS = 0.333 
+ FC = 0.9259 
.ENDS
**
**********************************************************
*
* 2PB1219AS
*
* NXP Semiconductors
*
* General purpose PNP transistor
* IC   = 500 mA
* VCEO = 50 V 
* hFE  = 170 - 340 @ 10V/150mA
*
*
*
* Package: SOT 323
* 
* Package Pin 1: Base
* Package Pin 2: Emitter
* Package Pin 3: Collector
*
*
*  
* Simulator: Spice 3        
*
**********************************************************
*#
.MODEL Q2PB1219AS PNP 
+ IS = 6.637E-014 
+ NF = 0.9909 
+ ISE = 3.699E-015 
+ NE = 1.352 
+ BF = 191 
+ IKF = 0.1868 
+ VAF = 3.066 
+ NR = 0.992 
+ ISC = 2.511E-014 
+ NC = 1.152 
+ BR = 16 
+ IKR = 0.8297 
+ VAR = 20 
+ RB = 11 
+ IRB = 0.00015 
+ RBM = 1.6 
+ RE = 0.145 
+ RC = 0.09035 
+ XTB = 0 
+ EG = 1.11 
+ XTI = 3 
+ CJE = 6.039E-011 
+ VJE = 0.7603 
+ MJE = 0.3903 
+ TF = 1.167E-009 
+ XTF = 25 
+ VTF = 2 
+ ITF = 2.81 
+ PTF = 0 
+ CJC = 2.653E-011 
+ VJC = 0.1704 
+ MJC = 0.3 
+ XCJC = 1 
+ TR = 1.4E-008 
+ CJS = 0 
+ VJS = 0.75 
+ MJS = 0.333 
+ FC = 0.9259 
.ENDS
**
**********************************************************
*
* 2PB1424
*
* NXP Semiconductors
*
* Low-VCEsat-transistor (PNP)
* IC   = 3 A
* VCEO = 20 V 
* hFE  = 180 - 390 @ 2V/0,1A
*
*
*
* Package: SOT 89
* 
* Package Pin 1: Emitter
* Package Pin 2: Collector
* Package Pin 3: Base
*
*
* Extraction date (week/year): 46/2007 
* Simulator: Spice 3        
*
**********************************************************
*#
.SUBCKT 2PB1424 1 2 3
*
Q1 1 2 3 2PB1424
D1 1 2 DIODE
*
*The diode does not reflect a 
*physical device but improves 
*only modeling in the reverse 
*mode of operation.
*
.MODEL 2PB1424 PNP 
+ IS = 3.682E-013 
+ NF = 0.9845 
+ ISE = 1.02E-013 
+ NE = 1.452 
+ BF = 246.4 
+ IKF = 2.6 
+ VAF = 30 
+ NR = 0.985 
+ ISC = 8.035E-014 
+ NC = 1.15 
+ BR = 126.1 
+ IKR = 8 
+ VAR = 11 
+ RB = 11 
+ IRB = 0.0001406 
+ RBM = 0.4 
+ RE = 0.02 
+ RC = 0.057 
+ XTB = 0 
+ EG = 1.11 
+ XTI = 3 
+ CJE = 2.952E-010 
+ VJE = 0.8026 
+ MJE = 0.3982 
+ TF = 1.1E-009 
+ XTF = 4 
+ VTF = 1 
+ ITF = 1 
+ PTF = 0 
+ CJC = 1.06E-010 
+ VJC = 0.4574 
+ MJC = 0.3251 
+ XCJC = 1 
+ TR = 1.3E-009 
+ CJS = 0 
+ VJS = 0.75 
+ MJS = 0.333 
+ FC = 0.9 
.MODEL DIODE D 
+ IS = 4.786E-014 
+ N = 1.103 
+ BV = 1000 
+ IBV = 0.001 
+ RS = 1.213 
+ CJO = 0 
+ VJ = 1 
+ M = 0.9 
+ FC = 0 
+ TT = 0 
+ EG = 1.1 
+ XTI = 3 
.ENDS
**
**********************************************************
*
* 2PB709ARL
*
* NXP Semiconductors
*
* General purpose PNP transistor
* IC   = 100 mA
* VCEO = 45 V 
* hFE  = 210 - 340 @ 10V/2mA
*
*
*
* Package: SOT 23
* 
* Package Pin 1: Base
* Package Pin 2: Emitter
* Package Pin 3: Collector
*
*
* Extraction date (week/year): 41/2008 
* Simulator: Spice 3      
*
**********************************************************
*#
.SUBCKT 2PB709ARL 1 2 3
*
Q1 1 2 3 2PB709ARL
D1 1 2 DIODE
*
*The diode does not reflect a 
*physical device but improves 
*only modeling in the reverse 
*mode of operation.
*
.MODEL 2PB709ARL PNP 
+ IS = 1.812E-014 
+ NF = 0.9965 
+ ISE = 1.531E-015 
+ NE = 1.371 
+ BF = 243.3 
+ IKF = 0.055 
+ VAF = 15 
+ NR = 0.995 
+ ISC = 5.561E-015 
+ NC = 1.119 
+ BR = 11.27 
+ IKR = 0.019 
+ VAR = 15 
+ RB = 67 
+ IRB = 0.0003 
+ RBM = 6 
+ RE = 0.5449 
+ RC = 0.53 
+ XTB = 0 
+ EG = 1.11 
+ XTI = 3 
+ CJE = 1.102E-011 
+ VJE = 0.795 
+ MJE = 0.4 
+ TF = 8.2E-010 
+ XTF = 17 
+ VTF = 5 
+ ITF = 0.4 
+ PTF = 0 
+ CJC = 6.031E-012 
+ VJC = 0.65 
+ MJC = 0.545 
+ XCJC = 1 
+ TR = 3.2E-008 
+ CJS = 0 
+ VJS = 0.75 
+ MJS = 0.333 
+ FC = 0.78 
.MODEL DIODE D 
+ IS = 4.455E-017 
+ N = 4.786 
+ BV = 1000 
+ IBV = 0.001 
+ RS = 205.4 
+ CJO = 0 
+ VJ = 1 
+ M = 0.5 
+ FC = 0 
+ TT = 0 
+ EG = 1.11 
+ XTI = 3 
.ENDS
**
**********************************************************
*
* 2PB709AR
*
* NXP Semiconductors
*
* General purpose PNP transistor
* IC   = 100 A
* VCEO = 45 V 
* hFE  = 210 - 340 @ 10V/2mA
*
*
*
* Package: SOT 23
* 
* Package Pin 1: Base
* Package Pin 2: Emitter
* Package Pin 3: Collector
*
*
* Extraction date (week/year): 31/2003 
* Simulator: Spice 2      
*
**********************************************************
*#
.MODEL Q2PB709AR PNP 
+ IS = 1.489E-14 
+ NF = 0.9902 
+ ISE = 2.952E-15 
+ NE = 1.381 
+ BF = 270 
+ IKF = 0.055 
+ VAF = 50 
+ NR = 0.99 
+ ISC = 8.349E-15 
+ NC = 1.126 
+ BR = 7.5 
+ IKR = 0.023 
+ VAR = 20 
+ RB = 237 
+ IRB = 5E-05 
+ RBM = 1 
+ RE = 0.4 
+ RC = 0.85 
+ XTB = 0 
+ EG = 1.11 
+ XTI = 3 
+ CJE = 1.205E-11 
+ VJE = 0.7414 
+ MJE = 0.3803 
+ TF = 5.1E-10 
+ XTF = 5 
+ VTF = 5 
+ ITF = 0.14 
+ PTF = 0 
+ CJC = 6.263E-12 
+ VJC = 0.5872 
+ MJC = 0.3726 
+ XCJC = 1 
+ TR = 1.3E-07 
+ CJS = 0 
+ VJS = 0.75 
+ MJS = 0.333 
+ FC = 0.78 
.ENDS
**
**********************************************************
*
* 2PB709ART
*
* NXP Semiconductors
*
* General purpose PNP transistor
* IC   = 100 mA
* VCEO = 45 V 
* hFE  = 210 - 340 @ 10V/2mA
*
*
*
* Package: SOT 23
* 
* Package Pin 1: Base
* Package Pin 2: Emitter
* Package Pin 3: Collector
*
*
* Extraction date (week/year): 05/2007 
* Simulator: Spice 3      
*
**********************************************************
*#
.SUBCKT 2PB709ART 1 2 3
*
Q1 1 2 3 2PB709ART
D1 1 2 DIODE
*
* The diode does not reflect a 
* physical device but improves 
* only modeling in the reverse 
* mode of operation.
*
.MODEL 2PB709ART PNP 
+ IS = 3.682E-013 
+ NF = 0.9845 
+ ISE = 1.02E-013 
+ NE = 1.452 
+ BF = 246.4 
+ IKF = 2.6 
+ VAF = 30 
+ NR = 0.985 
+ ISC = 8.035E-014 
+ NC = 1.15 
+ BR = 126.1 
+ IKR = 8 
+ VAR = 11 
+ RB = 11 
+ IRB = 0.0001406 
+ RBM = 0.4 
+ RE = 0.02 
+ RC = 0.057 
+ XTB = 0 
+ EG = 1.11 
+ XTI = 3 
+ CJE = 2.952E-010 
+ VJE = 0.8026 
+ MJE = 0.3982 
+ TF = 1.1E-009 
+ XTF = 4 
+ VTF = 1 
+ ITF = 1 
+ PTF = 0 
+ CJC = 1.06E-010 
+ VJC = 0.4574 
+ MJC = 0.3251 
+ XCJC = 1 
+ TR = 1.3E-009 
+ CJS = 0 
+ VJS = 0.75 
+ MJS = 0.333 
+ FC = 0.9 
.MODEL DIODE D 
+ IS = 4.786E-014 
+ N = 1.103 
+ BV = 1000 
+ IBV = 0.001 
+ RS = 1.213 
+ CJO = 0 
+ VJ = 1 
+ M = 0.9 
+ FC = 0 
+ TT = 0 
+ EG = 1.1 
+ XTI = 3 
.ENDS
**
**********************************************************
*
* 2PB709ARW
*
* NXP Semiconductors
*
* General purpose PNP transistor
* IC   = 100 mA
* VCEO = 45 V 
* hFE  = 210 - 340 @ 10V/2mA
*
*
*
* Package: SOT 323
* 
* Package Pin 1: Base
* Package Pin 2: Emitter
* Package Pin 3: Collector
*
*
* Extraction date (week/year): 31/2003 
* Simulator: Spice 3      
*
**********************************************************
*#
.SUBCKT 2PB709ARW 1 2 3
*
Q1 1 2 3 2PB709ARW
D1 1 2 DIODE
*
* The diode does not reflect a 
* physical device but improves 
* only modeling in the reverse 
* mode of operation.
*
.MODEL 2PB709ARW PNP
+ IS = 9.134E-15
+ NF = 0.9775
+ ISE = 5.035E-16
+ NE = 1.4
+ BF = 267.4
+ IKF = 0.095
+ VAF = 38
+ NR = 0.9848
+ ISC = 1.713E-15
+ NC = 1.034
+ BR = 17
+ IKR = 0.0075
+ VAR = 11.5
+ RB = 75
+ IRB = 0.0002144
+ RBM = 0.108
+ RE = 0.4
+ RC = 0.95
+ XTB = 0
+ EG = 1.11
+ XTI = 3
+ CJE = 1.126E-11
+ VJE = 0.7922
+ MJE = 0.3954
+ TF = 4.5E-10
+ XTF = 1.5
+ VTF = 20
+ ITF = 0.07
+ PTF = 0
+ CJC = 1.031E-11
+ VJC = 1
+ MJC = 0.6227
+ XCJC = 1
+ TR = 5.1E-08
+ CJS = 0
+ VJS = 0.75
+ MJS = 0.333
+ FC = 0.78
.MODEL DIODE D
+ IS = 4.065E-18
+ N = 0.9309
+ BV = 1000
+ IBV = 0.001
+ RS = 0.02115
+ CJO = 0
+ VJ = 1
+ M = 0.5
+ FC = 0
+ TT = 0
+ XTI = 2
+ EG = 1.11
.ENDS
**
**********************************************************
*
* 2PB709ASL
*
* NXP Semiconductors
*
* General purpose PNP transistor
* IC   = 100 mA
* VCEO = 45 V 
* hFE  = 290 - 460 @ 10V/2mA
*
*
*
* Package: SOT 23
* 
* Package Pin 1: Base
* Package Pin 2: Emitter
* Package Pin 3: Collector
*
*
* Extraction date (week/year): 41/2008
* Simulator: Spice 3      
*
**********************************************************
*#
.SUBCKT 2PB709ASL 1 2 3
*
Q1 1 2 3 2PB709ASL
D1 1 2 DIODE
*
*The diode does not reflect a 
*physical device but improves 
*only modeling in the reverse 
*mode of operation.
*
.MODEL 2PB709ASL PNP 
+ IS = 1.812E-014 
+ NF = 0.9864 
+ ISE = 8.648E-015 
+ NE = 1.547 
+ BF = 310 
+ IKF = 0.05 
+ VAF = 15 
+ NR = 0.985 
+ ISC = 5.561E-015 
+ NC = 1.119 
+ BR = 14.64 
+ IKR = 0.019 
+ VAR = 15 
+ RB = 67 
+ IRB = 0.0003 
+ RBM = 6 
+ RE = 0.57 
+ RC = 0.5 
+ XTB = 0 
+ EG = 1.11 
+ XTI = 3 
+ CJE = 1.102E-011 
+ VJE = 0.795 
+ MJE = 0.4095 
+ TF = 8.5E-010 
+ XTF = 15 
+ VTF = 15 
+ ITF = 0.5 
+ PTF = 0 
+ CJC = 6.031E-012 
+ VJC = 0.65 
+ MJC = 0.545 
+ XCJC = 1 
+ TR = 2.5E-008 
+ CJS = 0 
+ VJS = 0.75 
+ MJS = 0.333 
+ FC = 0.78 
.MODEL DIODE D 
+ IS = 4.455E-017 
+ N = 4.786 
+ BV = 1000 
+ IBV = 0.001 
+ RS = 205.4 
+ CJO = 0 
+ VJ = 1 
+ M = 0.5 
+ FC = 0 
+ TT = 0 
+ EG = 1.11 
+ XTI = 3 
.ENDS
**
**********************************************************
*
* 2PB709ASW
*
* NXP Semiconductors
*
* General purpose PNP transistor
* IC   = 100 mA
* VCEO = 45 V 
* hFE  = 290 - 460 @ 10V/2mA
*
*
*
* Package: SOT 323
* 
* Package Pin 1: Base
* Package Pin 2: Emitter
* Package Pin 3: Collector
* 
*
* 
* Simulator: Spice 2        
*
**********************************************************
*#
.MODEL Q2PB709ASW PNP 
+ IS = 1.489E-14 
+ NF = 0.9902 
+ ISE = 2.952E-15 
+ NE = 1.381 
+ BF = 270 
+ IKF = 0.055 
+ VAF = 50 
+ NR = 0.99 
+ ISC = 8.349E-15 
+ NC = 1.126 
+ BR = 7.5 
+ IKR = 0.023 
+ VAR = 20 
+ RB = 237 
+ IRB = 5E-05 
+ RBM = 1 
+ RE = 0.4 
+ RC = 0.85 
+ XTB = 0 
+ EG = 1.11 
+ XTI = 3 
+ CJE = 1.205E-11 
+ VJE = 0.7414 
+ MJE = 0.3803 
+ TF = 5.1E-10 
+ XTF = 5 
+ VTF = 5 
+ ITF = 0.14 
+ PTF = 0 
+ CJC = 6.263E-12 
+ VJC = 0.5872 
+ MJC = 0.3726 
+ XCJC = 1 
+ TR = 1.3E-07 
+ CJS = 0 
+ VJS = 0.75 
+ MJS = 0.333 
+ FC = 0.78 
.ENDS
**
**********************************************************
*
* 2PB709BRL
*
* NXP Semiconductors
*
* PNP transistor
* Ic   = 200 mA
* Vceo = 50  V 
* hFE  = 210-340 @ 10 V/2 mA (typical)
* 
*
*
* Package: SOT23
*
* Package Pin 1: Base
* Package Pin 2: Emitter
* Package Pin 3: Collector
*
*
* Extraction date (week/year): 40/2008
* Simulator: Spice 3
*
**********************************************************
*#
.SUBCKT 2PB709BRL 1 2 3
*
Q1 1 2 3 2PB709BRL
D1 1 2 DIODE
*
* Diode D1 is dedicated to improve modeling of reverse 
* mode of operation and does not reflect a physical device.
*
.MODEL 2PB709BRL PNP 
+ IS = 1.812E-014 
+ NF = 0.9965 
+ ISE = 1.531E-015 
+ NE = 1.371 
+ BF = 243.3 
+ IKF = 0.055 
+ VAF = 15 
+ NR = 0.995 
+ ISC = 5.561E-015 
+ NC = 1.119 
+ BR = 11.27 
+ IKR = 0.019 
+ VAR = 15 
+ RB = 67 
+ IRB = 0.0003 
+ RBM = 6 
+ RE = 0.5449 
+ RC = 0.53 
+ XTB = 0 
+ EG = 1.11 
+ XTI = 3 
+ CJE = 1.102E-011 
+ VJE = 0.795 
+ MJE = 0.4 
+ TF = 8.2E-010 
+ XTF = 17 
+ VTF = 5 
+ ITF = 0.4 
+ PTF = 0 
+ CJC = 6.031E-012 
+ VJC = 0.65 
+ MJC = 0.545 
+ XCJC = 1 
+ TR = 3.2E-008 
+ CJS = 0 
+ VJS = 0.75 
+ MJS = 0.333 
+ FC = 0.78 
.MODEL DIODE D 
+ IS = 4.455E-017 
+ N = 4.786 
+ BV = 1000 
+ IBV = 0.001 
+ RS = 205.4 
+ CJO = 0 
+ VJ = 1 
+ M = 0.5 
+ FC = 0 
+ TT = 0 
+ EG = 1.11 
+ XTI = 3 
.ENDS
**
**********************************************************
*
* 2PB709BSL
*
* NXP Semiconductors
*
* PNP transistor
* Ic   = 200 mA
* Vceo = 50  V 
* hFE  = 290-460 @ 10 V/2 mA (typical)
* 
*
*
* Package: SOT23
*
* Package Pin 1: Base
* Package Pin 2: Emitter
* Package Pin 3: Collector
*
*
* Extraction date (week/year): 40/2008
* Simulator: Spice 3
*
**********************************************************
*#
.SUBCKT 2PB709BSL 1 2 3
*
Q1 1 2 3 2PB709BSL
D1 1 2 DIODE
*
* Diode D1 is dedicated to improve modeling of reverse 
* mode of operation and does not reflect a physical device.
*
.MODEL 2PB709BSL PNP 
+ IS = 1.812E-014 
+ NF = 0.9864 
+ ISE = 8.648E-015 
+ NE = 1.547 
+ BF = 310 
+ IKF = 0.05 
+ VAF = 15 
+ NR = 0.985 
+ ISC = 5.561E-015 
+ NC = 1.119 
+ BR = 14.64 
+ IKR = 0.019 
+ VAR = 15 
+ RB = 67 
+ IRB = 0.0003 
+ RBM = 6 
+ RE = 0.57 
+ RC = 0.5 
+ XTB = 0 
+ EG = 1.11 
+ XTI = 3 
+ CJE = 1.102E-011 
+ VJE = 0.795 
+ MJE = 0.4095 
+ TF = 8.5E-010 
+ XTF = 15 
+ VTF = 15 
+ ITF = 0.5 
+ PTF = 0 
+ CJC = 6.031E-012 
+ VJC = 0.65 
+ MJC = 0.545 
+ XCJC = 1 
+ TR = 2.5E-008 
+ CJS = 0 
+ VJS = 0.75 
+ MJS = 0.333 
+ FC = 0.78 
.MODEL DIODE D 
+ IS = 4.455E-017 
+ N = 4.786 
+ BV = 1000 
+ IBV = 0.001 
+ RS = 205.4 
+ CJO = 0 
+ VJ = 1 
+ M = 0.5 
+ FC = 0 
+ TT = 0 
+ EG = 1.11 
+ XTI = 3 
.ENDS
**
**********************************************************
*
* 2PB710ARL
*
* NXP Semiconductors
*
* General purpose PNP transistor
* IC   = 500 mA
* VCEO = 45 V 
* hFE  = 120 - 240 @ 10V/150mA
*
*
*
* Package: SOT 23
* 
* Package Pin 1: Base
* Package Pin 2: Emitter
* Package Pin 3: Collector
*
*
* Extraction date (week/year): 41/2008 
* Simulator: Spice 3      
*
**********************************************************
*#
.MODEL Q2PB710ARL PNP 
+ IS = 6.637E-014 
+ NF = 0.9909 
+ ISE = 3.699E-015 
+ NE = 1.352 
+ BF = 191 
+ IKF = 0.1868 
+ VAF = 3.066 
+ NR = 0.992 
+ ISC = 2.511E-014 
+ NC = 1.152 
+ BR = 16 
+ IKR = 0.8297 
+ VAR = 20 
+ RB = 11 
+ IRB = 0.00015 
+ RBM = 1.6 
+ RE = 0.145 
+ RC = 0.09035 
+ XTB = 0 
+ EG = 1.11 
+ XTI = 3 
+ CJE = 6.039E-011 
+ VJE = 0.7603 
+ MJE = 0.3903 
+ TF = 1.167E-009 
+ XTF = 25 
+ VTF = 2 
+ ITF = 2.81 
+ PTF = 0 
+ CJC = 2.653E-011 
+ VJC = 0.1704 
+ MJC = 0.3 
+ XCJC = 1 
+ TR = 1.4E-008 
+ CJS = 0 
+ VJS = 0.75 
+ MJS = 0.333 
+ FC = 0.9259 
.ENDS
**
**********************************************************
*
* 2PB710ASL
*
* NXP Semiconductors
*
* General purpose PNP transistor
* IC   = 500 mA
* VCEO = 45 V 
* hFE  = 170 - 340 @ 10V/150mA
*
*
*
* Package: SOT 23
* 
* Package Pin 1: Base
* Package Pin 2: Emitter
* Package Pin 3: Collector
*
*
* Extraction date (week/year): 41/2008  
* Simulator: Spice 3      
*
**********************************************************
*#
.MODEL Q2PB710ASL PNP 
+ IS = 6.637E-014 
+ NF = 0.9909 
+ ISE = 1.488E-014 
+ NE = 1.368 
+ BF = 257.2 
+ IKF = 0.1293 
+ VAF = 4.982 
+ NR = 0.9937 
+ ISC = 2.511E-014 
+ NC = 1.152 
+ BR = 16 
+ IKR = 0.2455 
+ VAR = 20 
+ RB = 11 
+ IRB = 0.00015 
+ RBM = 1.6 
+ RE = 0.145 
+ RC = 0.06785 
+ XTB = 0 
+ EG = 1.11 
+ XTI = 3 
+ CJE = 6.039E-011 
+ VJE = 0.7603 
+ MJE = 0.3903 
+ TF = 1.167E-009 
+ XTF = 25 
+ VTF = 2 
+ ITF = 2.81 
+ PTF = 0 
+ CJC = 2.653E-011 
+ VJC = 0.1704 
+ MJC = 0.3 
+ XCJC = 1 
+ TR = 1.1E-008 
+ CJS = 0 
+ VJS = 0.75 
+ MJS = 0.333 
+ FC = 0.9259 
.ENDS
**
**********************************************************
*
* 2PC4081Q
*
* NXP Semiconductors
*
* General purpose NPN transistor
* IC   = 150 mA
* VCEO = 50 V 
* hFE  = 120 - 270 @ 6V/1mA
*
*
*
* Package: SOT 323
* 
* Package Pin 1: Base
* Package Pin 2: Emitter
* Package Pin 3: Collector
* 
*
* 
* Simulator: Spice 2        
*
**********************************************************
*#
.MODEL Q2PC4081Q NPN
+     IS=1.533E-14
+     NF=1.002
+     ISE=7.932E-16
+     NE=1.436
+     BF=178.7  
+     IKF=0.1216
+     VAF=69.7
+     NR=1.004
+     ISC=8.305E-14
+     NC=1.207  
+     BR=8.628
+     IKR=0.1121
+     VAR=44.7
+     RB=1
+     IRB=1E-06
+     RBM=1  
+     RE=0.361
+     RC=1.382
+     XTB=0
+     EG=1.11
+     XTI=3
+     CJE=1.457E-11  
+     VJE=0.65
+     MJE=0.3393
+     TF=5.275E-10
+     XTF=96.78
+     VTF=2.012  
+     ITF=0.4793
+     PTF=0
+     CJC=3.511E-12
+     VJC=0.4485
+     MJC=0.3646  
+     XCJC=0.6193
+     TR=1E-32
+     CJS=0
+     VJS=0.75
+     MJS=0.333
+     FC=0.9256
.ENDS
**
**********************************************************
*
* 2PC4081R
*
* NXP Semiconductors
*
* General purpose NPN transistor
* IC   = 150 mA
* VCEO = 50 V 
* hFE  = 180 - 390 @ 6V/1mA
*
*
*
* Package: SOT 323
* 
* Package Pin 1: Base
* Package Pin 2: Emitter
* Package Pin 3: Collector
* 
*
* 
* Simulator: Spice 2        
*
**********************************************************
*#
.MODEL Q2PC4081R NPN 
+     IS=2.456E-14
+     NF=0.997
+     ISE=4.908E-15
+     NE=1.706
+     BF=265.4  
+     IKF=0.1357
+     VAF=63.2
+     NR=1.004
+     ISC=6.272E-14
+     NC=1.243  
+     BR=6.657
+     IKR=0.1144
+     VAR=25.9
+     RB=1
+     IRB=1E-06
+     RBM=1  
+     RE=0.4683
+     RC=1.31
+     XTB=0
+     EG=1.11
+     XTI=3
+     CJE=1.384E-11  
+     VJE=0.5561
+     MJE=0.3437
+     TF=5.275E-10
+     XTF=127
+     VTF=1.441  
+     ITF=0.565
+     PTF=0
+     CJC=4.399E-12
+     VJC=0.2006
+     MJC=0.3344  
+     XCJC=0.6193
+     TR=1E-32
+     CJS=0
+     VJS=0.75
+     MJS=0.333
+     FC=0.8361 
.ENDS
**
**********************************************************
*
* 2PC4081S
*
* NXP Semiconductors
*
* General purpose NPN transistor
* IC   = 150 mA
* VCEO = 50 V 
* hFE  = 270 - 560 @ 6V/1mA
*
*
*
* Package: SOT 323
* 
* Package Pin 1: Base
* Package Pin 2: Emitter
* Package Pin 3: Collector
* 
*
* 
* Simulator: Spice 2        
*
**********************************************************
*#
.MODEL Q2PC4081S NPN 
+     IS=2.409E-14
+     NF=0.997
+     ISE=9.842E-16
+     NE=1.464
+     BF=351.8  
+     IKF=0.1371
+     VAF=52.64
+     NR=1.004
+     ISC=7.455E-14
+     NC=1.237  
+     BR=9.646
+     IKR=0.1144
+     VAR=364.5
+     RB=1
+     IRB=1E-06
+     RBM=1  
+     RE=0.3666
+     RC=1.31
+     XTB=0
+     EG=1.11
+     XTI=3
+     CJE=1.233E-11  