*
******************************************
*
*1N4148
*
*NXP Semiconductors
*
*High-speed diodes
*
*
*
*
* 
*
*
*
*
*
*
*VRRM = 100V
*IFRM = 450 mA 
*trr  = 4ns
*
*Package: SOD 27
*
*Package Pin 1 : Cathode
*Package Pin 2 : Anode
*
*
*
*
*Simulator: PSPICE
*
******************************************
*
.SUBCKT 1N4148 1 2 
*
* The resistor R1 does not reflect 
* a physical device. Instead it
* improves modeling in the reverse 
* mode of operation.
*
R1 1 2 5.827E+9 
D1 1 2 1N4148
*
.MODEL 1N4148 D 
+ IS = 4.352E-9 
+ N = 1.906 
+ BV = 110 
+ IBV = 0.0001 
+ RS = 0.6458 
+ CJO = 7.048E-13 
+ VJ = 0.869 
+ M = 0.03 
+ FC = 0.5 
+ TT = 3.48E-9 
.ENDS
**
******************************************
*
*1N4735A
*
*NXP Semiconductors
*
*Voltage regulator diodes
*
*
*
*
* 
*
*IR    = 10?A  @ VR = 3V
*IZSM  = 730mA @ tp = 
*VZmax = 6,2V  @ IZ = 1mA
*
*
*
*
* 
*
*Package: SOD66
*
*Package Pin 1: Cathode 
*Package Pin 2: Anode
*
*
*
*
*Simulator: SPICE2
*
******************************************
*
.SUBCKT 1N4735A 1 2
*
* The resistor R1 does not reflect 
* a physical device. Instead it
* improves modeling in the reverse 
* mode of operation.
*
R1 1 2 3E+9 
D1 1 2 1N4735A
*
.MODEL 1N4735A D 
+ IS = 1.803E-14 
+ N = 1.167 
+ BV = 6.2 
+ IBV = 0.041 
+ RS = 0.3264 
+ CJO = 6.85E-11 
+ VJ = 0.6947 
+ M = 0.3439 
+ FC = 0.5 
.ENDS
**
******************************************
*
*1PS10SB82
*
*NXP Semiconductors
*
*Schottky barrier diode
*
*
*
*
*IFSM =     @ tp = 
*VF = 700mV @ IF = 30mA
*
*
*
*
*
*
*
*
*
*Package: SOD882
*
*Package Pin 1 : Cathode 
*Package Pin 2 : Anode
* 
* 
*
*
*Simulator: PSPICE
*
******************************************
*
.SUBCKT 1PS10SB82 1 2 
*
* The resistor R1 does not reflect 
* a physical device. Instead it
* improves modeling in the reverse 
* mode of operation.
*
R1 1 2 3E+7 
D1 1 2 1PS10SB82
*
.MODEL 1PS10SB82 D 
+ IS = 1.042E-8 
+ N = 1.029 
+ BV = 17 
+ IBV = 0.001 
+ RS = 5.567 
+ CJO = 9.779E-13 
+ VJ = 0.2925 
+ M = 0.194 
+ FC = 0.5 
+ EG = 0.69 
+ XTI = 2 
.ENDS
**
******************************************
*
*1PS181 
*
*NXP Semiconductors
*
*High speed double diode
*
*
*
*
* 
*
*
*
*
*
*
*VRRM = 85V
*IFRM = 500mA @ tp = 
*trr  = 4ns
*
*Package: SOT 346
*
*Package Pin 1: cathode      K1
*Package Pin 2: cathode      K2
*Package Pin 3: common anode
*
*
*
*Simulator: SPICE2
*
******************************************
*
.SUBCKT 1PS181 1 2
*
* The resistor R1 does not reflect
* a physical device.  Instead it 
* improves modeling in the reverse
* mode of operation.
*
R1 1 2 2.3E+9
D1 1 2 1PS181
*
.MODEL 1PS181 D
+ IS = 1.705E-9
+ N = 1.71
+ BV = 87
+ IBV = 0.0003
+ RS = 1.022
+ CJO = 1.798E-12
+ VJ = 1.032
+ M = 0.2987
+ FC = 0.5
+ TT = 3.606E-9 
+ EG = 1.1
+ XTI = 3
.ENDS
**
******************************************
*
*1PS300 
*
*NXP Semiconductors
*
*High speed double diode
*
*
*
*
* 
*
*
*
*
*
*
*VRRM = 85V
*IFRM = 500mA @ tp = 
*trr  = 4ns
*
*Package: SOT 323
*
*Package Pin 1: cathode      K1
*Package Pin 2: cathode      K2
*Package Pin 3: common anode
*
*
*
*Simulator: SPICE2
*
******************************************
*
.SUBCKT 1PS300 1 2
*
* The resistor R1 does not reflect
* physical devices.  Instead it 
* improves modeling in the reverse
* mode of operation.
*
R1 1 2 2.3E+9
D1 1 2 1PS300
*
.MODEL 1PS300 D
+ IS = 1.705E-9
+ N = 1.71
+ BV = 87
+ IBV = 0.0003
+ RS = 1.022
+ CJO = 1.798E-12
+ VJ = 1.032
+ M = 0.2987
+ FC = 0.5
+ TT = 3.606E-9 
+ EG = 1.1
+ XTI = 3
.ENDS
**
******************************************
*
*1PS79SB30
*
*NXP Semiconductors
*
*Schottky barrier diode
*
*
*
*
*IFSM = 1A    @ tp = 8,3ms
*VF   = 600mV @ IF = 200mA
*
*
*
*
*
*
*
*
*
*Package: SOD523
*
*Package Pin 1 : Cathode 
*Package Pin 2 : Anode
* 
* 
*
*
*Simulator: PSPICE
*
******************************************
*
.SUBCKT 1PS79SB30 1 2
*
* The resistor R1 does not reflect 
* a physical device. Instead it
* improves modeling in the reverse 
* mode of operation.
*
R1 1 2 9.5E+07
D1 1 2 1PS79SB30
*
.MODEL 1PS79SB30 D
+ IS = 8E-08
+ N = 1.012
+ BV = 45
+ IBV = 0.0001
+ RS = 0.8243
+ CJO = 2.515E-11
+ VJ = 0.4182
+ M = 0.4941
+ FC = 0.5
+ TT = 0
+ EG = 0.69
+ XTI = 2
.ENDS
**
******************************************
*
*1PS79SB31
*
*NXP Semiconductors
*
*Schottky barrier diode
*
*
*
*
*IFSM = 1A    @ tp = 8,3ms
*VF   = 500mV @ IF = 200mA
*
*
*
*
*
*
*
*
*
*Package: SOD523
*
*Package Pin 1 : Cathode 
*Package Pin 2 : Anode
* 
* 
*
*
*Simulator: PSPICE
*
******************************************
*
.SUBCKT 1PS79SB31 1 2
*
* The resistor R1 does not reflect 
* a physical device. Instead it
* improves modeling in the reverse 
* mode of operation.
*
R1 1 2 4.771E+06
D1 1 2 1PS79SB31
*
.MODEL 1PS79SB31 D
+ IS = 9.539E-07
+ N = 1.007
+ BV = 35
+ IBV = 4E-05
+ RS = 0.4678
+ CJO = 3.518E-11
+ VJ = 0.3193
+ M = 0.4687
+ FC = 0.5
+ TT = 0
+ EG = 0.69
+ XTI = 2
.ENDS
**
******************************************
*
*1PS88SB82
*
*NXP Semiconductors
*
*Schottky barrier diode
*
*
*
*
*IFSM =       @ tp =   
*VF   = 700mV @ IF = 30mA
*
*
*
*
*
*
*
*
*
*Package: SOT363
*
*Package Pin 1;4: Anode;Cathode D1;D3
*Package Pin 2:5: Anode;Cathode D2;D2
*Package Pin 3;6: Anode;Cathode D3;D1
* 
*
*
*Simulator: 
*
******************************************
*
.SUBCKT 1PS88SB82 1 2
*
* The resistor R1 does not reflect 
* a physical devices. Instead it
* improves modeling in the reverse 
* mode of operation.
*
R1 1 2 3E+07
D1 1 2 1PS88SB82
*
.MODEL 1PS88SB82 D
+ IS = 1.042E-08
+ N = 1.029
+ BV = 20
+ IBV = 0.001
+ RS = 5.567
+ CJO = 1.029E-12
+ VJ = 0.2159
+ M = 0.1731
+ FC = 0
+ TT = 0
+ EG = 0.69
+ XTI = 2
.ENDS
**
******************************************
*
*BAS101 
*
*NXP Semiconductors
*
*High-voltage switching diodes
*
*
*
*
* 
*
*
*
*
*
*
*VRRM = 300V
*IFRM = 1A   @ tp = 1ms
*trr  = 50ns
*
*Package: SOT23
*
*Package Pin 1: Anode     
*Package Pin 2: not connected  
*Package Pin 3: Cathode
*
*
*
*Simulator: SPICE2
*
******************************************
*
.SUBCKT BAS101 1 2 
*
* The resistor R1 does not reflect 
* a physical device. Instead it
* improves modeling in the reverse 
* mode of operation.
*
R1 1 2 1.2E+10
D1 1 2 BAS101
*
.MODEL BAS101 D
+ IS = 7.219E-9
+ N = 2
+ BV = 330
+ IBV = 0.0001
+ RS = 0.63
+ CJO = 4.584E-13
+ VJ = 0.7483
+ M = 0.06257
+ FC = 0.5
+ TT = 2.1987E-8
.ENDS
**
******************************************
*
*BAS101S 
*
*NXP Semiconductors
*
*High-voltage switching diodes
*
*
*
*
* 
*
*
*
*
*
*
*VRRM = 300V
*IFRM = 1A   @ tp = 1ms
*trr  = 50ns
*
*Package: SOT23
*
*Package Pin 1: Anode         D1
*Package Pin 2: Cathode       D2
*Package Pin 3: Cathode;Anode D1;D2
*
*
*
*Simulator: SPICE2
*
******************************************
*
.SUBCKT BAS101S 1 2 
*
* The resistor R1 does not reflect
* a physical device.  Instead it 
* improves modeling in the reverse
* mode of operation.
*
R1 1 2 1.2E+10
D1 1 2 BAS101S
*
.MODEL BAS101S D
+ IS = 7.219E-9
+ N = 2
+ BV = 330
+ IBV = 0.0001
+ RS = 0.63
+ CJO = 4.584E-13
+ VJ = 0.7483
+ M = 0.06257
+ FC = 0.5
+ TT = 2.1987E-8
.ENDS
**
******************************************
*
*BAS116H
*
*NXP Semiconductors
*
*Low leakage diode
*
*
*
*
* 
*
*
*
*
*
*
*VRRM = 85V
*IFRM = 500mA @ tp = 1ms
*trr  = 0,3?s
*
*Package: SOD123F
*
*Package Pin 1: Cathode     
*Package Pin 2: Anode
*
*
*
*
*Simulator: SPICE2
*
******************************************
*
.MODEL BAS116H D
+ IS=805.84E-18
+ N=1.0246
+ RS=50.000E-3
+ IKF=362.16E-6
+ CJO=1.9002E-12
+ M=.35193
+ VJ=1.2722
+ ISR=298.95E-15
+ BV=98
+ IBV=1.42E-3
+ TT=1.0230E-6
.ENDS
**
******************************************
*
*BAS116
*
*NXP Semiconductors
*
*Low leakage diode
*
*
*
*
* 
*
*
*
*
*
*
*VRRM = 85V
*IFRM = 500mA @ tp = 1ms
*trr  = 3?s
*
*Package: SOT23
*
*Package Pin 1: Anode     
*Package Pin 2: not connected  
*Package Pin 3: Cathode
*
*
*
*Simulator: PSPICE
*
******************************************
*
.MODEL BAS116 D
+ IS=805.84E-18
+ N=1.0246
+ RS=50.000E-3
+ IKF=362.16E-6
+ CJO=1.9002E-12
+ M=.35193
+ VJ=1.2722
+ ISR=298.95E-15
+ BV=113.30
+ IBV=10
+ TT=1.0230E-6
.ENDS
**
******************************************
*
*BAS116T
*
*NXP Semiconductors
*
*Single low leakage current switching diode
*
*
*
*
* 
*
*
*
*
*
*
*VRRM = 85V
*IFRM = 500mA @ tp =  
*trr  = 3?s
*
*Package: SOT416
*
*Package Pin 1: Anode   
*Package Pin 2: not connected
*Package Pin 3: Cathode
*
*
*
*Simulator: SPICE3
*
******************************************
*
.MODEL BAS116T D 
+ IS = 1.472E-015 
+ N = 1.05 
+ BV = 110
+ IBV = 0.0001 
+ RS = 0.4571 
+ CJO = 1.821E-012 
+ VJ = 0.5358 
+ M = 0.3461 
+ FC = 0.5 
+ TT = 0
+ EG = 0.69
+ XTI = 2
.ENDS
**
******************************************
*
*BAS16H
*
*NXP Semiconductors
*
*High speed switching diode
*
*
*
*
* 
*
*
*
*
*
*
*VRRM = 100V
*IFRM = 500mA @ tp =  
*trr  = 4?s
*
*Package: SOT416
*
*Package Pin 1: Cathode  
*Package Pin 2: Anode
*
*
*
*
*Simulator: SPICE2
*
******************************************
*
.MODEL BAS16H D
+ IS=6.0289E-9
+ N=2.1283
+ RS=1.0000E-3
+ IKF=37.638E-3
+ CJO=593.63E-15
+ M=.1
+ VJ=.68774
+ ISR=2.0646e-9
+ NR=4.9950
+ BV=113.60
+ IBV=10
+ TT=4.5000E-9
.ENDS
**
******************************************
*
*BAS16J
*
*NXP Semiconductors
*
*High speed switching diode
*
*
*
*
* 
*
*
*
*
*
*
*VRRM = 100V
*IFRM = 500mA @ tp =  
*trr  = 4?s
*
*Package: SOD323F
*
*Package Pin 1: Cathode  
*Package Pin 2: Anode
*
*
*
*
*Simulator: SPICE2
*
******************************************
*
.MODEL BAS16J D
+ IS=6.0289E-9
+ N=2.1283
+ RS=1.0000E-3
+ IKF=37.638E-3
+ CJO=593.63E-15
+ M=.1
+ VJ=.68774
+ ISR=2.0646e-9
+ NR=4.9950
+ BV=113.60
+ IBV=1E-3
+ TT=4.5000E-9
.ENDS
**
******************************************
*
*BAS16L
*
*NXP Semiconductors
*
*High speed switching diode
*
*
*
*
* 
*
*
*
*
*
*
*VRRM = 100V
*IFRM = 500mA @ tp =  
*trr  = 4?s
*
*Package: SOD882
*
*Package Pin 1: Cathode  
*Package Pin 2: Anode
*
*
*
*
*Simulator: PSPICE
*
******************************************
*
.MODEL BAS16L D
+ IS = 6.0289E-9
+ N = 2.1283
+ RS = 1.0000E-3
+ IKF = 37.638E-3
+ CJO = 5.641E-013
+ M = 0.05188 
+ VJ = 0.01571
+ ISR = 2.0646e-9
+ NR = 4.9950
+ BV = 113.60
+ IBV = 10
+ TT = 4.5000E-9
.ENDS
**
******************************************
*
*BAS16
*
*NXP Semiconductors
*
*High speed switching diode
*
*
*
*
* 
*
*
*
*
*
*
*VRRM = 100V
*IFRM = 500mA @ tp =  
*trr  = 4?s
*
*Package: SOT416
*
*Package Pin 1: Anode   
*Package Pin 2: not connected
*Package Pin 3: Cathode
*
*
*
*Simulator: SPICE3
*
******************************************
*
.SUBCKT BAS16 1 2
*
*The resistor R1 and the diode D2 do not  reflect  
*physical devices but improve only modeling in the reverse 
*mode of operation.
*       
R1 1 2 5E+009   
D1 1 2 DIODE1 
D2 1 2 DIODE2 
*
 .MODEL DIODE1 D 
 + IS = 3.9E-009 
 + N = 1.9       
 + BV = 129.6    
 + IBV = 2.906E-007      
 + RS = 1.1      
 + CJO = 4.29E-013       
 + VJ = 0.68     
 + M = 0.026     
 + FC = 0.5      
 + TT = 0
 + EG = 1.1      
 + XTI = 3       
 .MODEL DIODE2 D 
 + IS = 3E-015   
 + N = 1.1       
 + RS = 280      
 .ENDS
**
******************************************
*
*BAS16VV
*
*NXP Semiconductors
*
*High speed switching diode
*
*
*
*
* 
*
*
*
*
*
*
*VRRM = 100V
*IFRM = 500mA @ tp =  
*trr  = 4ns
*
*Package: SOT666
*
*Package Pin 1;4: Anode;Cathode  D1;D3
*Package Pin 2;5: Anode;Cathode  D2;D2
*Package Pin 3;6: Anode;Cathode  D3;D1
*
*
*
*Simulator: PSPICE
*
******************************************
*
.MODEL BAS16VV D
+ IS=6.0289E-9
+ N=2.1283
+ RS=1.0000E-3
+ IKF=37.638E-3
+ CJO=593.63E-15
+ M=.1
+ VJ=.68774
+ ISR=2.0646e-9
+ NR=4.9950
+ BV=113.60
+ IBV=10
+ TT=4.5000E-9
.ENDS
**
******************************************
*
*BAS16VY
*
*NXP Semiconductors
*
*High speed switching diode
*
*
*
*
* 
*
*
*
*
*
*
*VRRM = 100V
*IFRM = 500mA @ tp =  
*trr  = 4ns
*
*Package: SOT363
*
*Package Pin 1;4: Anode;Cathode  D1;D3
*Package Pin 2;5: Anode;Cathode  D2;D2
*Package Pin 3;6: Anode;Cathode  D3;D1
*
*
*
*Simulator: SPICE3
*
******************************************
*
.SUBCKT BAS16VY 1 2
  R1 1 2 5E+009   
 D1 1 2  
 + DIODE1
 D2 1 2  
 + DIODE2

*The resistor R1 and the diode 
*D2 do not reflect physical 
*devices but improve only 
*modeling in the reverse mode 
*of operation.
*

 .MODEL DIODE1 D 
 + IS = 3.9E-009 
 + N = 1.9       
 + BV = 125.9    
 + IBV = 1.738E-008      
 + RS = 1.1      
 + CJO = 4.42E-013       
 + VJ = 0.124    
 + M = 0.024     
 + FC = 0.5      
 + TT = 0
 + EG = 1.1      
 + XTI = 3       
 .MODEL DIODE2 D 
 + IS = 3E-015   
 + N = 1.1       
 + RS = 280      
 .ENDS*
******************************************
*
*BAS216
*
*NXP Semiconductors
*
*High speed switching diode
*
*
*
*
* 
*
*
*
*
*
*
*VRRM = 85V
*IFRM = 500mA @ tp =  
*trr  = 4ns
*
*Package: SOD110
*
*Package Pin 1: Cathode
*Package Pin 2: Anode
* 
*
*
*
*Simulator: PSPICE
*
******************************************
*
.MODEL BAS216 D
+ IS=6.0289E-9
+ N=2.1283
+ RS=1.0000E-3
+ IKF=37.638E-3
+ CJO=593.63E-15
+ M=.1
+ VJ=.68774
+ ISR=2.0646E-9
+ NR=4.9950
+ BV=113.60
+ IBV=10
+ TT=4.5000E-9
.ENDS
**
******************************************
*
*BAS21H
*
*NXP Semiconductors
*
*Single high voltage switching diode
*
*
*
*
* 
*
*
*
*
*
*
*VRRM = 250V
*IFRM = 625mA @ tp = 1ms
*trr  = 50ns
*
*Package: SOD123F
*
*Package Pin 1: Cathode
*Package Pin 2: Anode
* 
*
*
*
*Simulator: SPICE2
*
******************************************
*
.SUBCKT BAS21H 1 2
*
* The resistor R1 does not reflect 
* a physical device. Instead it
* improves modeling in the reverse 
* mode of operation.
*
R1 1 2 1.622E+10 
D1 1 2 BAS21H 
*
.MODEL BAS21H D 
+ IS = 3.648E-9 
+ N = 1.909 
+ BV = 260 
+ IBV = 2E-7 
+ RS = 0.7535 
+ CJO = 6.99E-13 
+ VJ = 0.2028 
+ M = 0.1151 
+ FC = 0.5 
+ TT = 3.462E-8 
.ENDS
**
******************************************
*
*BAS21J
*
*NXP Semiconductors
*
*Single high-speed switching diode
*
*
*
*
* 
*
*
*
*
*
*
*VRRM = 300V
*IFRM = 1A   @ tp = 0,5ms
*trr  = 50ns
*
*Package: SOD323F
*
*Package Pin 1: Cathode
*Package Pin 2: Anode
* 
*
*
*
*Simulator: SPICE2
*
******************************************
*
.SUBCKT BAS21J 1 2
*
* The resistor R1 does not reflect 
* a physical device. Instead it
* improves modeling in the reverse 
* mode of operation.
*
R1 1 2 1.2E+10 
D1 1 2 BAS21J
*
.MODEL BAS21J D
+ IS = 7.219E-9
+ N = 2
+ BV = 330
+ IBV = 0.0001
+ RS = 0.63
+ CJO = 4.584E-13
+ VJ = 0.7483
+ M = 0.06257
+ FC = 0.5
+ TT = 2.1987E-8
.ENDS
**
******************************************
*
*BAS21
*
*NXP Semiconductors
*
*General purpose diode
*
*
*
*
* 
*
*
*
*
*
*
*VRRM = 250V
*IFRM = 625mA @ tp =  
*trr  = 50ns
*
*Package: SOT23
*
*Package Pin 1: Anode
*Package Pin 2: not connected
*Package Pin 3: Cathode  
*
*
*
*Simulator: SPICE2
*
******************************************
*
.SUBCKT BAS21 1 2 
*
*The resistor R1 does not reflect 
*a physical device. Instead it
*improves modeling in the reverse 
*mode of operation.
*
R1 1 2 1.622E+10 
D1 1 2 BAS21 
*
.MODEL BAS21 D
+ IS = 3.648E-9 
+ N = 1.909 
+ BV = 260 
+ IBV = 2E-7 
+ RS = 0.7535 
+ CJO = 6.99E-13 
+ VJ = 0.2028 
+ M = 0.1151 
+ FC = 0.5 
+ TT = 3.462E-8 
.ENDS
**
******************************************
*
*BAS21VD
*
*NXP Semiconductors
*
*High-voltage switching diode array
*
*
*
*
* 
*
*
*
*
*
*
*VRRM = 250V
*IFRM = 1A   @ tp = 1ms
*trr  = 50ns
*
*Package: SOT457
*
*Package Pin 1;4: Cathode;Anode (k1;a3)
*Package Pin 2;5: Cathode;Anode (k2;a2)
*Package Pin 3;6: Cathode;Anode (k3;a1)
*
*
*
*Simulator: SPICE3
*
******************************************
*
.SUBCKT BAS21VD 1 2
*
* The resistor R1 does not reflect 
* a physical devices.Instead it 
* improves modeling in the reverse 
* mode of operation.
*
R1 1 2 1.622E+10
D1 1 2 BAS21VD
*
.MODEL BAS21VD D
+ IS = 3.648E-9
+ N = 1.909
+ BV = 260
+ IBV = 2E-7
+ RS = 0.7535
+ CJO = 5.01E-13
+ VJ = 0.4515
+ M = 0.0571
+ FC = 0.5
+ TT = 2.054E-8
.ENDS
**
******************************************
*
*BAS28
*
*NXP Semiconductors
*
*High speed double diode 
*
*
*
*
* 
*
*
*
*
*
*
*VRRM = 85V
*IFRM = 500mA @ tp = 1ms
*trr  = 4ns
*
*Package: SOT143B
*
*Package Pin 1: cathode  D1
*Package Pin 2: cathode  D2
*Package Pin 3: anode    D2
*Package Pin 4: anode    D1
*
*
*Simulator: PSPICE
*
******************************************
*
.MODEL BAS28 D
+ IS=6.0289E-9
+ N=2.1283
+ RS=1.0000E-3
+ IKF=37.638E-3
+ CJO=593.63E-15
+ M=.1
+ VJ=.68774
+ ISR=2.0646E-9
+ NR=4.9950
+ BV=113.60
+ IBV=10
+ TT=4.5000E-9
.ENDS
**
******************************************
*
*BAS316
*
*NXP Semiconductors
*
*High-speed switching diodes
*
*
*
*
* 
*
*
*
*
*
*
*VRRM = 100V
*IFRM = 500mA @ tp = 0,5?s
*trr  = 4ns
*
*Package: SOD323
*
*Package Pin 1: cathode  
*Package Pin 2: Anode
*
*
*
*
*Simulator: PSPICE
*
******************************************
*
.SUBCKT BAS316 1 2   
*
* The Resistor R1 and the diode D2 
*do not reflect physical devices. 
*Instead they improve modeling in 
*the reverse mode of operation.
* 

 R1 1 2 1E+010   
 D1 1 2  
 + DIODE1
 D2 1 2  
 + DIODE2
 .MODEL DIODE1 D 
 + IS = 3.9E-009 
 + N = 1.9       
 + BV = 141.3    
 + IBV = 4.485E-005      
 + RS = 1.1      
 + CJO = 4.344E-013      
 + VJ = 0.23     
 + M = 0.026     
 + FC = 0.5      
 + TT = 0
 + EG = 1.1      
 + XTI = 3       
 .MODEL DIODE2 D 
 + IS = 3E-015   
 + N = 1.1       
 + RS = 280      
 .ENDS   
**
******************************************
*
*BAS321
*
*NXP Semiconductors
*
*General purpose diode
*
*
*
*
* 
*
*
*
*
*
*
*VRRM = 250V
*IFRM = 625mA @ tp = 0,5ms
*trr  = 50ns
*
*Package: SOD323
*
*Package Pin 1: cathode  
*Package Pin 2: Anode
*
*
*
*
*Simulator: SPICE2
*
******************************************
*
.SUBCKT BAS321 1 2
*
* The resistor R1 does not reflect
* a physical device. Instead it
* improves modeling in the reverse
* mode of operation.
*
R1 1 2 1.622E+10 
D1 1 2 BAS321
*
.MODEL BAS321 D 
+ IS = 3.648E-9 
+ N = 1.909 
+ BV = 260 
+ IBV = 2E-7 
+ RS = 0.7535 
+ CJO = 6.99E-13 
+ VJ = 0.2028 
+ M = 0.1151 
+ FC = 0.5 
+ TT = 3.462E-8 
.ENDS
**
******************************************
*
*BAS32L
*
*NXP Semiconductors
*
*High speed switching diode
*
*
*
*
* 
*
*
*
*
*
*
*VRRM = 100V
*IFRM = 450mA
*trr  = 4ns
*
*Package: SOD27
*
*Package Pin 1: Cathode 
*Package Pin 2: Anode      
* 
*
*
*
*Simulator: PSPICE
*
******************************************
*
.MODEL BAS32L D
+ IS=22.270E-9
+ N=2.2030
+ RS=1.0000E-3
+ IKF=16.940E-3
+ CJO=1.0350E-12
+ M=.1
+ VJ=.75
+ ISR=10.010E-21
+ BV=124.10
+ IBV=7.6070E-3
+ TT=4.3280E-9
.ENDS
**
******************************************
*
*BAS40-05V
*
*NXP Semiconductors
*
*General-purpose Schottky diodes
*
*
*
*
*IFSM = 200mA @ tp = 10ms
*VF   = 380mV @ IF = 1mA
*
*
*
*
*
*
*
*
*
*Package: SOT23
*
*Package Pin 1: Anode           D1
*Package Pin 2: Anode           D2
*Package Pin 3: Cathode;Cathode D1;D2
*
* 
*
*Simulator: 
*
******************************************
*
.SUBCKT BAS40-05V 1 2 
*
* The resistor R1 does not 
* reflect a physical device. Instead it
* improves modeling in the reverse
* mode of operation.
*
R1 1 2 8E+08
D1 1 2 BAS40-05V 
*
.MODEL BAS40-05V D 
+ IS = 9.114E-09 
+ N = 1.006 
+ BV = 45 
+ IBV = 7.8E-05 
+ RS = 4.563 
+ CJO = 3.895E-12 
+ VJ = 0.3192 
+ M = 0.4008 
+ FC = 0.5 
+ TT = 0 
+ EG = 0.69 
+ XTI = 2
.ENDS
**
******************************************
*
*BAS40-07
*
*NXP Semiconductors
*
*General-purpose Schottky diodes
*
*
*
*
*IFSM = 200mA @ tp = 10ms
*VF   = 380mV @ IF = 1mA
*
*
*
*
*
*
*
*
*
*Package: SOT143B
*
*Package Pin 1: Cathode D1
*Package Pin 2: Cathode D2
*Package Pin 3: Anode   D2
*Package Pin 4: Anode   D1
*
*
*Simulator: 
*
******************************************
*
.SUBCKT BAS40-07 1 2 
*
* The resistor R1 does not reflect a 
* physical device.  Instead it improves
* modeling in the reverse mode of
* operation.
*
R1 1 2 8E+08
D1 1 2 BAS40-07
*
.MODEL BAS40-07 D
+ IS = 8.361E-09
+ N = 1.003
+ BV = 44
+ IBV = 8E-07
+ RS = 5.031
+ CJO = 3.8E-12
+ VJ = 0.1119
+ M = 0.2915
+ FC = 1
+ EG = 0.69
+ XTI = 2
.ENDS
**
******************************************
*
*BAS40-07V
*
*NXP Semiconductors
*
*General-purpose Schottky diodes
*
*
*
*
*IFSM = 200mA @ tp = 10ms
*VF   = 380mV @ IF = 1mA
*
*
*
*
*
*
*
*
*
*Package: SOT666
*
*Package Pin 1;4: Anode;Anode     D1;D2
*Package Pin 2;5: not connected
*Package Pin 3;6: Cathode;Cathode D2;D1
*
*
*
*Simulator: 
*
******************************************
*
.SUBCKT BAS40-07V 1 2
*
* The resistor R1 does not reflect a
* physical devices.  Instead it improves
* modeling in the reverse mode of
* operation.
*
R1 1 2 8E+08
D1 1 2 BAS40-07V
*
.MODEL BAS40-07V D
+ IS = 8.361E-09
+ N = 1.003
+ BV = 44
+ IBV = 8E-07
+ RS = 5.031
+ CJO = 3.8E-12
+ VJ = 0.1119
+ M = 0.2915
+ FC = 1
+ TT = 0
+ EG = 0.69
+ XTI = 2
.ENDS
**
******************************************
*
*BAS40H
*
*NXP Semiconductors
*
*General-purpose Schottky diodes
*
*
*
*
*IFSM = 200mA @ tp = 10ms
*VF   = 380mV @ IF = 1mA
*
*
*
*
*
*
*
*
*
*Package: SOD123F
*
*Package Pin 1: Cathode
*Package Pin 2: Anode
*
*
*
*
*Simulator: 
*
******************************************
*
.SUBCKT BAS40H 1 2
*
* The resistor R1 does not reflect 
* a physical device.  Instead it
* improves modeling in the reverse 
* mode of operation.
*
R1 1 2 8E+08
D1 1 2 BAS40H
*
.MODEL BAS40H D
+ IS = 8.361E-09
+ N = 1.003
+ BV = 44
+ IBV = 8E-07
+ RS = 5.031
+ CJO = 3.8E-12
+ VJ = 0.1119
+ M = 0.2915
+ FC = 1
+ EG = 0.69
+ XTI = 2
.ENDS
**
******************************************
*
*BAS40L
*
*NXP Semiconductors
*
*General-purpose Schottky diodes
*
*
*
*
*IFSM = 200mA @ tp = 10ms
*VF   = 380mV @ IF = 1mA
*
*
*
*
*
*
*
*
*
*Package: SOD882
*
*Package Pin 1: Cathode
*Package Pin 2: Anode
*
*
*
*
*Simulator: 
*
******************************************
*
.SUBCKT BAS40L 1 2
*
* The resistor R1 does not reflect 
* a physical device. Instead it
* improves modeling in the reverse 
* mode of operation.
*
R1 1 2 8E+08
D1 1 2 BAS40L
*
.MODEL BAS40L D 
+ IS = 9.114E-9 
+ N = 1.006 
+ BV = 45 
+ IBV = 7.8E-5 
+ RS = 4.563 
+ CJO = 3.895E-12 
+ VJ = 0.3192 
+ M = 0.4008 
+ FC = 0.5 
+ EG = 0.69 
+ XTI = 2 
.ENDS
**
******************************************
*
*BAS40XY
*
*NXP Semiconductors
*
*General-purpose Schottky diodes
*
*
*
*
*IFSM = 200mA @ tp = 10ms
*VF   = 380mV @ IF = 1mA
*
*
*
*
*
*
*
*
*
*Package: SOT363
*
*Package Pin 1;4: Anode ; Anode                   D1;D4
*Package Pin 2;5: Cathode ; Cathode               D2;D3
*Package Pin 3;6: Anode , Cathode ; Anode,Cathode  
*                 (D3,D4);(D1,D2)
*
*
*Simulator: 
*
******************************************
*
.SUBCKT BAS40XY 1 2 
*
* The resistor R1 does not reflect 
* a physical device. Instead it
* improves modeling in the reverse 
* mode of operation.
*
R1 1 2 8E+08
D1 1 2 BAS40XY
*
.MODEL BAS40XY D
+ IS = 8.361E-09
+ N = 1.003
+ BV = 44
+ IBV = 8E-07
+ RS = 5.031
+ CJO = 3.8E-12
+ VJ = 0.1119
+ M = 0.2915
+ FC = 1
+ EG = 0.69
+ XTI = 2
.ENDS
**
******************************************
*
*BAS416
*
*NXP Semiconductors
*
*Low-leakage diode
*
*
*
*
* 
*
*
*
*
*
*
*VRRM = 85V
*IFRM = 500mA @ tp =  ms
*trr  = 3?s
*
*Package: SOD323
*
*Package Pin 1: cathode  
*Package Pin 2: Anode
*
*
*
*
*Simulator: PSPICE
*
******************************************
*
.MODEL BAS416 D
+ IS=805.84E-18
+ N=1.0246
+ RS=50.000E-3
+ IKF=362.16E-6
+ CJO=1.9002E-12
+ M=.35193
+ VJ=1.2722
+ ISR=298.95E-15
+ BV=98
+ IBV=1.42E-3
+ TT=1.0230E-6
.ENDS
**
******************************************
*
*BAS45A
*
*NXP Semiconductors
*
*Low leakage diode 
*
*
*
*
* 
*
*
*
*
*
*
*VRRM = 125V
*IFRM = 625mA @ tp =  ms
*trr  = 1,5?s
*
*Package: SOD523
*
*Package Pin 1: cathode  
*Package Pin 2: Anode
*
*
*
*
*Simulator: PSPICE
*
******************************************
*
.MODEL BAS45A D
+ IS=7.0000E-9
+ N=2.2707
+ RS=1.0000E-3
+ IKF=22.121
+ CJO=2.9332E-12
+ M=.24677
+ VJ=.3905
+ ISR=10.010E-21
+ NR=4.9950
+ BV=225.36
+ IBV=10
+ TT=1.7500E-6
.ENDS
**
******************************************
*
*BAS516
*
*NXP Semiconductors
*
*High speed diode 
*
*
*
*
* 
*
*
*
*
*
*
*VRRM = 85V
*IFRM = 500mA @ tp =  ms
*trr  = 4ns
*
*Package: SOD523
*
*Package Pin 1: cathode  
*Package Pin 2: Anode
*
*
*
*
*Simulator: PSPICE
*
******************************************
*
.MODEL BAS516 D
+ IS=2.9891E-9
+ N=1.9303
+ RS=0.78115
+ IKF=0.085491E-3
+ CJO=383.41E-15
+ M=.1
+ VJ=9.99
+ ISR=6.8038E-9
+ NR=4.9950
+ BV=130.38
+ IBV=10
+ TT=3.0297E-9
.ENDS
**
******************************************
*
*BAS521
*
*NXP Semiconductors
*
*Single high-voltage switching diode
*
*
*
*
* 
*
*
*
*
*
*
*VRRM = 300V
*IFRM = 1A   @ tp =  1ms
*trr  = 50ns
*
*Package: SOD523
*
*Package Pin 1: cathode  
*Package Pin 2: Anode
*
*
*
*
*Simulator: SPICE3
*
******************************************
*
.SUBCKT BAS521 1 2
*
* The resistor R1 does not reflect 
* a physical device. Instead it
* improves modeling in the reverse 
* mode of operation.
*
R1 1 2 1.2E+10
D1 1 2 BAS521
*
.MODEL BAS521 D
+ IS = 7.219E-9
+ N = 2
+ BV = 310
+ IBV = 0.0001
+ RS = 0.63
+ CJO = 4.074E-13
+ VJ = 0.6538
+ M = 0.05409
+ FC = 0.5
+ TT = 2.1987E-8
+ EG = 0.69
+ XTI = 2
.ENDS
*
******************************************
*
*BAS521
*
*NXP Semiconductors
*
*High speed double diode
*
*
*
*
* 
*
*
*
*
*
*
*VRRM = 60V
*IFRM = 600mA @ tp =  1ms
*trr  = 6ns
*
*Package: SOT143B
*
*Package Pin 1: cathode  D1
*Package Pin 2: cathode  D2
*Package Pin 3: anode    D2
*Package Pin 4: anode    D1
*
*
*Simulator: PSPICE
*
******************************************
*
.MODEL BAS56 D
+ IS=10.825E-9
+ N=1.9301
+ RS=.49924
+ IKF=1.4135
+ CJO=994.44E-15
+ M=.10001
+ VJ=.69196
+ ISR=1.0704E-9
+ BV=113.15
+ IBV=15.676E-3
+ TT=5.7708E-9
.ENDS
**
******************************************
*
*BAS70-07
*
*NXP Semiconductors
*
*General-purpose Schottky diodes
*
*
*
*
*IFSM = 100mA @ tp = 10ms
*VF   = 410mV @ IF = 1mA
*
*
*
*
*
*
*
*
*
*Package: SOT143B
*
*Package Pin 1: Cathode D1
*Package Pin 2: Cathode D2
*Package Pin 3: Anode   D2
*Package Pin 4: Anode   D1
*
*
*Simulator: PSPICE
*
******************************************
*
.SUBCKT BAS70-07 1 2
*
* The resistor R1 does not reflect 
* a physical device. Instead it
* improves modeling in the reverse 
* mode of operation.
*
R1 1 2 1.409E+09
D1 1 2 BAS70-07
*
.MODEL BAS70-07 D
+ IS = 3.22E-09 
+ N = 1.018     
+ BV = 77       
+ IBV = 1.67E-07
+ RS = 20.89    
+ CJO = 1.655E-12
+ VJ = 0.349    
+ M = 0.3583    
+ FC = 0.5      
+ TT = 0
+ EG = 0.69     
+ XTI = 2       
.ENDS   
**
******************************************
*
*BAS70-07V
*
*NXP Semiconductors
*
*General-purpose Schottky diodes
*
*
*
*
*IFSM = 100mA @ tp = 10ms
*VF   = 410mV @ IF = 1mA
*
*
*
*
*
*
*
*
*
*Package: SOT666
*
*Package Pin 1;4: Anode ; Anode      D1;D2
*Package Pin 2;5: not connected
*Package Pin 3;6: Cathode ; Cathode  D2;D1
*
*
*
*Simulator: PSPICE
*
******************************************
*
.SUBCKT BAS70-07V 1 2
*
* The resistor R1 does not reflect 
* a physical device. Instead it
* improves modeling in the reverse 
* mode of operation.
*
R1 1 2 1.409E+09
D1 1 2 BAS70-07V
*
.MODEL BAS70-07V D
+ IS = 3.22E-09 
+ N = 1.018     
+ BV = 77       
+ IBV = 1.67E-07
+ RS = 20.89    
+ CJO = 1.655E-12
+ VJ = 0.349    
+ M = 0.3583    
+ FC = 0.5      
+ TT = 0
+ EG = 0.69     
+ XTI = 2       
.ENDS   
**
******************************************
*
*BAS70H
*
*NXP Semiconductors
*
*General-purpose Schottky diodes
*
*
*
*
*IFSM = 100mA @ tp = 10ms
*VF   = 410mV @ IF = 1mA
*
*
*
*
*
*
*
*
*
*Package: SOD123F
*
*Package Pin 1: Cathode 
*Package Pin 2: Anode
*
*
*
*
*Simulator: PSPICE
*
******************************************
*
.SUBCKT BAS70H 1 2
*
* The resistor R1 does not reflect 
* a physical device.  Instead it
* improves modeling in the reverse 
* mode of operation.
*
R1 1 2 1.409E+09
D1 1 2 BAS70H
*
.MODEL BAS70H D
+ IS = 3.22E-09 
+ N = 1.018     
+ BV = 77       
+ IBV = 1.67E-07
+ RS = 20.89    
+ CJO = 1.655E-12
+ VJ = 0.349    
+ M = 0.3583    
+ FC = 0.5      
+ EG = 0.69     
+ XTI = 2       
.ENDS
**
******************************************
*
*BAS70L
*
*NXP Semiconductors
*
*General-purpose Schottky diodes
*
*
*
*
*IFSM = 100mA @ tp = 10ms
*VF   = 410mV @ IF = 1mA
*
*
*
*
*
*
*
*
*
*Package: SOD882
*
*Package Pin 1: Cathode 
*Package Pin 2: Anode
*
*
*
*
*Simulator: PSPICE
*
******************************************
*
.SUBCKT BAS70L 1 2 
*
* The resistor R1 does not reflect 
* a physical device. Instead it
* improves modeling in the reverse 
* mode of operation.
*
R1 1 2 1.409E+9 
D1 1 2 BAS70L 
*
.MODEL BAS70L D 
+ IS = 3.22E-9 
+ N = 1.018 
+ BV = 77 
+ IBV = 1.67E-7 
+ RS = 20.89 
+ CJO = 1.608E-12 
+ VJ = 0.3891 
+ M = 0.3683 
+ FC = 0.5 
+ EG = 0.69 
+ XTI = 2 
.ENDS
**
******************************************
*
*BAS70VV
*
*NXP Semiconductors
*
*General-purpose Schottky diodes
*
*
*
*
*IFSM = 100mA @ tp = 10ms
*VF   = 410mV @ IF = 1mA
*
*
*
*
*
*
*
*
*
*Package: SOT666
*
*Package Pin 1;4: Anode ; Cathode  D1;D3
*Package Pin 2;5: Anode ; Cathode  D2;D2
*Package Pin 3;6: Anode ; Cathode  D3;D1
*
*
*
*Simulator: PSPICE
*
******************************************
*
.SUBCKT BAS70VV 1 2
*
* The resistors do not 
* reflect physical devices. 
* Instead they improve modeling
* in the reverse mode of 
* operation.
*
R1 1 2 1.409E+09
D1 1 2 BAS70VV
*
.MODEL BAS70VV D
+ IS = 3.22E-09
+ N = 1.018
+ BV = 77 
+ IBV = 1.67E-07
+ RS = 20.89 
+ CJO = 1.655E-12
+ VJ = 0.349 
+ M = 0.3583 
+ FC = 0.5 
+ EG = 0.69 
+ XTI = 2 
.ENDS
**
******************************************
*
*BAS716
*
*NXP Semiconductors
*
*Low-leakage diode
*
*
*
*
* 
*
*
*
*
*
*
*VRRM = 85V
*IFRM = 500mA @ tp =  
*trr  = 3ns
*
*Package: SOD523
*
*Package Pin 1: cathode 
*Package Pin 2: anode
*
*
*
*
*Simulator: SPICE2
*
******************************************
*
.MODEL BAS716 D
+ IS = 3.519E-15
+ N = 1.093
+ BV = 110
+ IBV = 3E-9
+ RS = 0.7423
+ CJO = 1.817E-12
+ VJ = 0.6508
+ M = 0.3689
+ FC = 0.5
+ TT = 8.656E-7
.ENDS
**
******************************************
*
*BAT160A
*
*NXP Semiconductors
*
*Schottky barrier double diodes
*
*
*
*
*IFSM = 10A   @ tp = 8,3ms
*VF   = 850mV @ IF = 2A
*
*
*
*
*
*
*
*
*
*Package: SOT223
*