*
*DIODES_INC_SPICE_MODEL
*ORIGIN=DZSL_DPG
*SIMULATOR=PSPICE
*DATE=08/01/2009
*VERSION=1
*
.MODEL 2DA1797 PNP IS=2.715E-13 BF=170 VAF=70 NF=1.004 IKF=2.75 ISE=1E-13
+ NE=1.535 BR=23 VAR=40 NR=1.005 IKR=.55 ISC=5.15E-14 NC=1.13 RB=.07
+ RE=.065 RC=.085 CJE=360E-12 TF=.94E-9 CJC=90E-12 TR=60E-9 VJC=.705
+ MJC=.46
*
*$

*SRC=2DB1132R;DI_2DB1132R;BJTs PNP; Si;  32.0V  1.00A  200MHz    -
.MODEL DI_2DB1132R  NPN (IS=3.90f NF=1.00 BF=302 VAF=102
+ IKF=0.989 ISE=6.63f NE=2.00 BR=4.00 NR=1.00
+ VAR=20.0 IKR=1.50 RE=96.5m RB=0.386 RC=38.6m
+ XTB=1.5 CJE=127p VJE=1.10 MJE=0.500 CJC=32.4p VJC=0.300
+ MJC=0.300 TF=741p TR=123n EG=1.12 )

*
*DIODES_INC_SPICE_MODEL
*ORIGIN=DZSL_DPG
*SIMULATOR=PSPICE
*DATE=08/01/2009
*VERSION=1
*
.MODEL 2DB1694 PNP IS=2.817E-13 BF=550 IKF=0.63 VAF=28.4 
+ ISE=4.76E-14 NE=1.492 BR=42 IKR=0.293 VAR=10.21 ISC=2.7E-14 
+ NC=1.124 RB=0.173 RE=0.171 RC=0.089 CJC=28.5E-12 MJC=0.506 
+ VJC=0.843 CJE=92E-12 MJE=0.524 VJE=1.021 TF=0.8E-9 TR=20E-9
*
*$

*
*DIODES_INC_SPICE_MODEL
*ORIGIN=DZSL_DPG_GM
*SIMULATOR=PSPICE
*DATE=13OCT2010
*VERSION=1
*
.MODEL DSS30101L NPN IS=6.8E-13 BF=700 NF=1.005 VAF=100 IKF=2.8
+ ISE=6E-14 NE=1.4 BR=42 NR=1 VAR=14 IKR=1 ISC=4.8E-13 NC=1.44
+ RE=0.02 RB=1 RC=0.032 CJE=141E-12 VJE=0.84 MJE=0.4 CJC=31E-12
+ VJC=0.55 MJC=0.4 TF=0.59E-9 TR=6E-9 RCO=1.7 GAMMA=3E-8
+ QUASIMOD=1 XTB=1.35 TRE1=0.0045 TRB1=0.0035 TRC1=0.0045
*
*$

*
*DIODES_INC_SPICE_MODEL
*ORIGIN=DZSL_DPG_GM
*SIMULATOR=PSPICE
*DATE=10FEB2011
*VERSION=1
*PIN_ORDER         
* 1=C1    6=E1
* 2=B1    5=B2
* 3=C2    4=E2
*
.SUBCKT ZXTC2045E6 1 2 3 4 5 6
Q1 1 2 6 Nmod
Q2 3 5 4 Pmod
*
.MODEL Nmod  NPN IS =2.5E-13 NF =1 BF =600 IKF=1 VAF=51 ISE=2E-13 
+ NE =1.4 NR =1 BR =150 IKR=.5 VAR=25 ISC=1e-13 NC =1.47 RB =0.5
+ RE =0.055 RC =0.055 CJC=23E-12 MJC=0.33 VJC=0.75 CJE=98E-12 TF =0.8E-9 
+ TR =30e-9 
.MODEL Pmod PNP IS=2e-13 BF=550 XTB=1.4 NF=1 VAF=21 IKF=0.25
+ ISE=1e-13 NE=1.38 BR=55 NR=1 VAR=9.9 IKR=0.25 ISC=1e-13 NC=1.18
+ RE=0.06 RB=0.7 RC=0.06 CJE=95.9e-12 VJE=0.897 MJE=0.468 CJC=43.4e-12
+ VJC=1.816 MJC=0.85 TF=495e-12 TR=25e-9
.ENDS
*
*$

*SRC=2DA1774R;DI_2DA1774R;BJTs PNP; Si;  50.0V  0.150A  250MHz   Diodes Inc. Bipolar Transistor
.MODEL DI_2DA1774R  PNP (IS=15.2f NF=1.00 BF=523 VAF=127
+ IKF=54.7m ISE=3.88p NE=2.00 BR=4.00 NR=1.00
+ VAR=24.0 IKR=0.135 RE=0.710 RB=2.84 RC=0.284
+ XTB=1.5 CJE=42.6p VJE=1.10 MJE=0.500 CJC=13.7p VJC=0.300
+ MJC=0.300 TF=453p TR=96.4n EG=1.12 )

*SRC=2DB1184Q;DI_2DB1184Q;BJTs PNP; Si;  50.0V  3.00A  110MHz    
.MODEL DI_2DB1184Q  PNP (IS=8.38f NF=1.00 BF=197 VAF=127
+ IKF=3.34 ISE=488f NE=2.00 BR=4.00 NR=1.00
+ VAR=20.0 IKR=5.25 RE=33.2m RB=0.133 RC=13.3m
+ XTB=1.5 CJE=405p VJE=1.10 MJE=0.500 CJC=75.1p VJC=0.300
+ MJC=0.300 TF=1.27n TR=230n EG=1.12 )

*
*DIODES_INC_SPICE_MODEL
*ORIGIN=DZSL_DPG
*SIMULATOR=PSPICE
*DATE=09/01/2009
*VERSION=1
*
.MODEL 2DB1714 PNP IS=4E-13 NF=1 BF=470 IKF=3.5 VAF=23 ISE=10E-14
+ NE=1.49 NR=1 BR=97 IKR=1 VAR=4.5 ISC=7.5e-14 NC=1.2 RE=0.014 RB=0.12
+ RC=0.0111 RCO=0.88 GAMMA=0.6E-9 CJC=58E-12 MJC=0.41 VJC=0.62 CJE=183E-12
+ MJE=0.5 VJE=0.95 TF=3.9E-10 TR=7.8e-9 XTB=1.5 TRE1=0.003 TRB1=0.003
+ TRC1=0.003 QUASIMOD=1
*
*$

*SRC=BC847BLP;DI_BC847BLP;BJTs NPN; Si;  45.0V  0.100A  280MHz    -
.MODEL DI_BC847BLP  NPN (IS=5.62f NF=1.00 BF=450 VAF=121
+ IKF=70.3m ISE=191f NE=2.00 BR=4.00 NR=1.00
+ VAR=24.0 IKR=0.120 RE=0.700 RB=2.80 RC=0.280
+ XTB=1.5 CJE=14.6p VJE=1.10 MJE=0.500 CJC=6.93p VJC=0.300
+ MJC=0.300 TF=541p TR=86.5n EG=1.12 )

*SRC=BC857B;DI_BC857B;BJTs PNP; Si;  45.0V  0.100A  200MHz   Diodes, Inc. transistor
.MODEL DI_BC857B  PNP (IS=5.51f NF=1.00 BF=424 VAF=121
+ IKF=36.4m ISE=2.35p NE=2.00 BR=4.00 NR=1.00
+ VAR=20.0 IKR=90.0m RE=0.765 RB=3.06 RC=0.306
+ XTB=1.5 CJE=26.9p VJE=1.10 MJE=0.500 CJC=8.67p VJC=0.300
+ MJC=0.300 TF=700p TR=121n EG=1.12 )

*SRC=BC857C;DI_BC857C;BJTs PNP; Si;  45.0V  0.100A  250MHz   Diodes Inc. BJTs
.MODEL DI_BC857C  PNP (IS=10.2f NF=1.00 BF=1.09k VAF=121
+ IKF=36.4m ISE=1.24p NE=2.00 BR=4.00 NR=1.00
+ VAR=20.0 IKR=90.0m RE=0.715 RB=2.86 RC=0.286
+ XTB=1.5 CJE=13.3p VJE=1.10 MJE=0.500 CJC=7.80p VJC=0.300
+ MJC=0.300 TF=587p TR=95.0n EG=1.12 )

.MODEL BCW68H PNP IS =3.0572E-13 NF =1.0103 BF =450 IKF=0.93 VAF=20
+ISE=1.5E-14 NE =1.52 NR =1.007 BR =160 IKR=0.08 VAR=33 
+ISC=3.8736E-14 NC =1.0893 RB =0.112 RE =0.144 RC =0.156 
+CJC=42E-12 MJC=0.4449 VJC=0.3131 CJE=91E-12 
+TF =0.51E-9 TR =3.6E-9

*
*DIODES_INC_SPICE_MODEL
*ORIGIN=DZSL_DPG_GM
*SIMULATOR=PSPICE
*DATE=13OCT2010
*VERSION=1
*
.MODEL DSS4240T NPN IS=6.8E-13 BF=700 NF=1.005 VAF=100 IKF=2.8
+ ISE=6E-14 NE=1.4 BR=42 NR=1 VAR=14 IKR=1 ISC=4.8E-13 NC=1.44
+ RE=0.02 RB=1 RC=0.032 CJE=141E-12 VJE=0.84 MJE=0.4 CJC=31E-12
+ VJC=0.55 MJC=0.4 TF=0.59E-9 TR=6E-9 RCO=1.7 GAMMA=3E-8
+ QUASIMOD=1 XTB=1.35 TRE1=0.0045 TRB1=0.0035 TRC1=0.0045
*
*$

*
*DIODES_INC_SPICE_MODEL
*ORIGIN=DZSL_DPG
*SIMULATOR=PSPICE
*DATE=21/04/2009
*VERSION=1
*
.MODEL DSS5140V PNP IS=3e-13 NF=1 ISE=8e-14 NE=1.47 BF=430
+ VAF=27 IKF=2.35 ISC=1e-13 NC=1.25 BR=29 VAR=9.3 IKR=0.5 RE=55e-3
+ RB=500e-3 RC=12e-3 CJE=158e-12 VJE=1.0 MJE=0.55 CJC=51e-12
+ VJC=0.7 MJC=0.45 TF=6e-10 TR=13.6e-9 XTB=1.6 QUASIMOD=1
+ RCO=0.85 GAMMA=6e-10
*
*$

*
*DIODES_INC_SPICE_MODEL
*ORIGIN=DZSL_DPG
*SIMULATOR=PSPICE
*DATE=06/01/2009
*VERSION=1
*
.MODEL DSS5240T PNP IS=4E-13 NF=1 BF=470 IKF=3.5 VAF=23 
+ ISE=10E-14 NE=1.49 NR=1 BR=97 IKR=1 VAR=4.5 ISC=7.5e-14 NC=1.2 
+ RE=0.014 RB=0.12 RC=0.0111 RCO=0.88 GAMMA=0.6E-9 CJC=58E-12 
+ MJC=0.41 VJC=0.62 CJE=183E-12 MJE=0.5 VJE=0.95 TF=3.9E-10 
+ TR=7.8e-9 XTB=1.5 TRE1=0.003 TRB1=0.003 TRC1=0.003 QUASIMOD=1
*
*$

*
*Zetex ZXT13P40DE6 Spice Model v1.0 Last Revised 24/10/07
*
.MODEL ZXT13P40DE6 PNP IS=1.6E-12 NF=1 BF=600 VAF=29.9 ISE=1.2E-13
+ IKF=4 NE=1.45 BR=48 VAR=6.8 ISC=1.2E-13 NC=1.1 IKR=0.4 RC=0.028
+ RB=0.10 RE=0.022 QUASIMOD=1 RCO=0.5 GAMMA=2.5E-9 CJC=155E-12 MJC=0.43
+ VJC=0.6 CJE=570E-12 MJE=0.59 VJE=1.1 TF=0.8E-9 TR=18E-9 TRC1=0.005
+ TRB1=0.005 TRE1=0.005 XTB=1.4
*
*$
*
*                (c)  2007 Zetex Semiconductors plc
*
*   The copyright in these models  and  the designs embodied belong
*   to Zetex Semiconductors plc (" Zetex ").  They  are  supplied
*   free of charge by Zetex for the purpose of research and design
*   and may be used or copied intact  (including this notice)  for
*   that purpose only.  All other rights are reserved. The models
*   are believed accurate but  no condition  or warranty  as to their
*   merchantability or fitness for purpose is given and no liability
*   in respect of any use is accepted by Zetex, its distributors
*   or agents.
*
*   Zetex Semiconductors plc, Zetex Technology Park, Chadderton,
*   Oldham, United Kingdom, OL9 9LL

*
*DIODES_INC_SPICE_MODEL
*ORIGIN=DZSL_DPG_GM
*SIMULATOR=PSPICE
*DATE=10FEB2011
*VERSION=1
*PIN_ORDER         
* 1=C1    6=E1
* 2=B1    5=B2
* 3=C2    4=E2
*
.SUBCKT ZXTC2063E6 1 2 3 4 5 6
Q1 1 2 6 Nmod
Q2 3 5 4 Pmod
*
.MODEL Nmod NPN IS=5.1E-13 BF=480 NF=1 VAF=99 IKF=3.3 ISE=1.2E-13
+NE=1.49 BR=65 NR=1 VAR=24 IKR=1 ISC=1.1E-13 NC=1.31 RE=0.0115 RB=0.15 RC=0.012
+CJE=192E-12 VJE=0.75 MJE=0.38 CJC=35E-12 VJC=0.47 MJC=0.34 TF=0.62E-9 TR=20E-9
+RCO=1.9 GAMMA=1E-8 QUASIMOD=1 XTB=1.35 TRE1=0.005 TRB1=0.005 TRC1=0.005
.MODEL Pmod PNP IS=4E-13 NF=1 BF=470 IKF=3.5 VAF=23 ISE=10E-14
+ NE=1.49 NR=1 BR=97 IKR=1 VAR=4.5 ISC=7.5e-14 NC=1.2 RE=0.014 RB=0.12
+ RC=0.0111 RCO=0.88 GAMMA=0.6E-9 CJC=58E-12 MJC=0.41 VJC=0.62 CJE=183E-12
+ MJE=0.5 VJE=0.95 TF=3.9E-10 TR=7.8e-9 XTB=1.5 TRE1=0.003 TRB1=0.003
+ TRC1=0.003 QUASIMOD=1
.ENDS
*
*$

*
*DIODES_INC_SPICE_MODEL
*ORIGIN=DZSL_DPG_GM
*SIMULATOR=PSPICE
*DATE=24JAN2011
*VERSION=2
*PIN_ORDER         
*1=B1
*2=E1
*3=B2
*4=E2
*5=C2
*6=C2
*7=C1
*8=C1
*
.SUBCKT ZXTC4591AMC 1 2 3 4 5 6 7 8
Q1 10 1 2 Nmod
Q2 20 3 4 Pmod
RP1 10 7 0.001
RP2 10 8 0.001
RP3 20 5 0.001
RP4 20 6 0.001
*
.MODEL Nmod NPN IS =3.05E-13 NF =1.0034 BF =650 IKF=0.8 VAF=165
+ ISE=8.0191E-14 NE =1.4126 NR =1.001 BR =120 IKR=0.6 VAR=69 
+ ISC=1.6E-12 NC =1.38 RB =0.065 RE =0.109 RC =0.075 
+ CJC=17.2E-12 MJC=0.3429 VJC=0.4298 CJE=96E-12 
+ TF =0.71E-9 TR =2.5E-9
.MODEL Pmod PNP IS =3.0572E-13 NF =1.0103 BF =450 IKF=0.93
+ VAF=20 ISE=1.5E-14 NE =1.52 NR =1.007 BR =160 IKR=0.08 VAR=33 
+ ISC=3.8736E-14 NC =1.0893 RB =0.112 RE =0.144 RC =0.156 
+ CJC=42E-12 MJC=0.4449 VJC=0.3131 CJE=91E-12 
+ TF =0.51E-9 TR =3.6E-9
.ENDS
*
*$

*
*DIODES_INC_SPICE_MODEL
*ORIGIN=DZSL_DPG_GM
*SIMULATOR=PSPICE
*DATE=08FEB2011
*VERSION=2
*PIN_ORDER         
* 1=E1    6=C1
* 2=B1    5=B2
* 3=C2    4=E2
*
.SUBCKT ZXTD09N50DE6 1 2 3 4 5 6
Q1 6 2 1 Mod1
Q2 3 5 4 Mod1
*
.MODEL Mod1 NPN IS=2.61E-13 BF=550 IKF=0.99 VAF=84
+ ISE=7.17E-14 NE=1.4148 BR=110 IKR=0.63 VAR=51 ISC=2.25E-12 
+ NC=1.45 RB=0.093 RE=0.073 RC=0.083 CJC=18E-12 MJC=0.371 
+ VJC=0.435 CJE=97.7E-12 TF=0.78E-9 TR=9E-9
.ENDS
*
*$

*
*DIODES_INC_SPICE_MODEL
*ORIGIN=DZSL_DPG_GM
*SIMULATOR=PSPICE
*DATE=10FEB2011
*VERSION=1
*PIN_ORDER         
* 1=E1    6=C1
* 2=B1    5=B2
* 3=C2    4=E2
*
.SUBCKT ZXTD2090E6 1 2 3 4 5 6
Q1 6 2 1 Mod1
Q2 3 5 4 Mod1
*
.MODEL Mod1 NPN IS=2.61E-13 BF=550 IKF=0.99 VAF=84
+ ISE=7.17E-14 NE=1.4148 BR=110 IKR=0.63 VAR=51 ISC=2.25E-12 
+ NC=1.45 RB=0.093 RE=0.073 RC=0.083 CJC=18E-12 MJC=0.371 
+ VJC=0.435 CJE=97.7E-12 TF=0.78E-9 TR=9E-9
.ENDS
*
*$

.MODEL ZXTP2025F PNP IS=6E-13 NF=.996 BF=340 VAF=31 ISE=1.3E-13 IKF=4
+NE=1.7 BR=45 VAR=12 ISC=7E-14 NC=1.7 RC=0.009 RB=.19 RE=0.009
+CJC=130E-12 MJC=0.425 VJC=0.68 CJE=510E-12 MJE=0.4 VJE=0.68 TF=0.75E-9
+TR=11E-9 XTB=1.4 QUASIMOD=1 RCO=0.4 GAMMA=0.5E-9

*SRC=2DC2412R;DI_2DC2412R;BJTs NPN; Si;  50.0V  0.150A  200MHz   Diodes Inc. Bipolar Transistor
.MODEL DI_2DC2412R  NPN (IS=15.5f NF=1.00 BF=524 VAF=127
+ IKF=54.7m ISE=3.90p NE=2.00 BR=4.00 NR=1.00
+ VAR=28.0 IKR=0.135 RE=0.290 RB=1.16 RC=0.116
+ XTB=1.5 CJE=22.7p VJE=1.10 MJE=0.500 CJC=7.34p VJC=0.300
+ MJC=0.300 TF=698p TR=121n EG=1.12 )

*SRC=2DC4617QLP;DI_2DC4617QLP;BJTs NPN; Si;  50.0V  0.100A  200MHz    
.MODEL DI_2DC4617QLP  NPN (IS=1.21f NF=1.00 BF=202 VAF=127
+ IKF=98.0m ISE=5.55f NE=2.00 BR=4.00 NR=1.00
+ VAR=20.0 IKR=0.150 RE=0.575 RB=2.30 RC=0.230
+ XTB=1.5 CJE=15.6p VJE=1.10 MJE=0.500 CJC=6.12p VJC=0.300
+ MJC=0.300 TF=765p TR=126n EG=1.12 )

*
*DIODES_INC_SPICE_MODEL
*ORIGIN=DZSL_DPG
*SIMULATOR=PSPICE
*DATE=08/01/2009
*VERSION=1
*
.MODEL 2DD2656 NPN IS=2.61E-13 BF=550 IKF=0.99 VAF=84
+ ISE=7.17E-14 NE=1.4148 BR=110 IKR=0.63 VAR=51 ISC=2.25E-12 
+ NC=1.45 RB=0.093 RE=0.073 RC=0.083 CJC=18E-12 MJC=0.371 
+ VJC=0.435 CJE=97.7E-12 TF=0.78E-9 TR=9E-9
*
*$

*SRC=BC807-16;DI_BC807-16;BJTs PNP; Si;  45.0V  0.500A  220MHz   Diodes
Inc. BJTs
.MODEL DI_BC807-16  PNP (IS=50.7f NF=1.00 BF=342 VAF=121
+ IKF=0.273 ISE=24.2p NE=2.00 BR=4.00 NR=1.00
+ VAR=20.0 IKR=0.675 RE=0.213 RB=0.852 RC=85.2m
+ XTB=1.5 CJE=107p VJE=1.10 MJE=0.500 CJC=34.7p VJC=0.300 MJC=0.300 
+ TF=631p TR=111n EG=1.12 )

*SRC=BC807-16W;DI_BC807-16W;BJTs PNP; Si;  45.0V  0.500A  163MHz   Diodes Inc. PNP BJT
.MODEL DI_BC807-16W  NPN (IS=49.9f NF=1.00 BF=342 VAF=121
+ IKF=0.182 ISE=19.6p NE=2.00 BR=4.00 NR=1.00
+ VAR=20.0 IKR=0.450 RE=0.663 RB=2.65 RC=0.265
+ XTB=1.5 CJE=107p VJE=1.10 MJE=0.500 CJC=34.7p VJC=0.300
+ MJC=0.300 TF=841p TR=112n EG=1.12

*SRC=BC807-25;DI_BC807-25;BJTs PNP; Si;  45.0V  0.500A  220MHz   Diodes
Inc. BJTs
.MODEL DI_BC807-25  PNP (IS=50.7f NF=1.00 BF=547 VAF=121
+ IKF=0.273 ISE=15.1p NE=2.00 BR=4.00 NR=1.00
+ VAR=20.0 IKR=0.675 RE=0.213 RB=0.852 RC=85.2m
+ XTB=1.5 CJE=107p VJE=1.10 MJE=0.500 CJC=34.7p VJC=0.300 MJC=0.300 
+ TF=631p TR=109n EG=1.12 )

*SRC=BC807-40;DI_BC807-40;BJTs PNP; Si;  45.0V  0.500A  220MHz   Diodes
Inc. BJTs
.MODEL DI_BC807-40  PNP (IS=50.7f NF=1.00 BF=821 VAF=121
+ IKF=0.273 ISE=10.1p NE=2.00 BR=4.00 NR=1.00
+ VAR=20.0 IKR=0.675 RE=0.213 RB=0.852 RC=85.2m
+ XTB=1.5 CJE=107p VJE=1.10 MJE=0.500 CJC=34.7p VJC=0.300 MJC=0.300 
+ TF=631p TR=108n EG=1.12 )

*SRC=BC847A;DI_BC847A;BJTs NPN; Si;  45.0V  0.100A  300MHz   Diodes Inc
BJTs
.MODEL DI_BC847A  NPN (IS=10.2f NF=1.00 BF=301 VAF=121
+ IKF=60.7m ISE=5.82p NE=2.00 BR=4.00 NR=1.00
+ VAR=24.0 IKR=0.150 RE=0.915 RB=3.66 RC=0.366
+ XTB=1.5 CJE=26.8p VJE=1.10 MJE=0.500 CJC=8.67p VJC=0.300 MJC=0.300 
+ TF=427p TR=50.3n EG=1.12 )

*SRC=BC847BLP4;DI_BC847BLP4;BJTs NPN; Si;  45.0V  0.100A  450MHz    
.MODEL DI_BC847BLP4  NPN (IS=2.31f NF=1.00 BF=425 VAF=121
+ IKF=58.6m ISE=3.67f NE=2.00 BR=4.00 NR=1.00
+ VAR=24.0 IKR=90.0m RE=0.700 RB=2.80 RC=0.280
+ XTB=1.5 CJE=14.9p VJE=1.10 MJE=0.500 CJC=6.07p VJC=0.300
+ MJC=0.300 TF=294p TR=53.9n EG=1.12 )

*SRC=BC847C;DI_BC847C;BJTs NPN; Si;  45.0V  0.100A  300MHz   Diodes Inc
BJTs
.MODEL DI_BC847C  NPN (IS=10.3f NF=1.00 BF=1.09k VAF=121
+ IKF=60.7m ISE=1.61p NE=2.00 BR=4.00 NR=1.00
+ VAR=24.0 IKR=0.150 RE=0.965 RB=3.86 RC=0.386
+ XTB=1.5 CJE=26.8p VJE=1.10 MJE=0.500 CJC=8.67p VJC=0.300 MJC=0.300 
+ TF=427p TR=48.6n EG=1.12 )

*SRC=BC857A;DI_BC857A;BJTs PNP; Si;  45.0V  0.100A  250MHz   Diodes Inc. BJTs
.MODEL DI_BC857A  PNP (IS=10.2f NF=1.00 BF=342 VAF=121
+ IKF=72.9m ISE=5.59p NE=2.00 BR=4.00 NR=1.00
+ VAR=20.0 IKR=0.180 RE=0.715 RB=2.86 RC=0.286
+ XTB=1.5 CJE=13.3p VJE=1.10 MJE=0.500 CJC=7.80p VJC=0.300
+ MJC=0.300 TF=581p TR=97.8n EG=1.12 )

*SRC=BC857BLP;DI_BC857BLP;BJTs PNP; Si;  45.0V  0.100A  490MHz   Diodes Inc. BJT
.MODEL DI_BC857BLP  PNP (IS=3.72f NF=1.00 BF=650 VAF=121
+ IKF=54.7m ISE=1.54p NE=2.00 BR=4.00 NR=1.00
+ VAR=20.0 IKR=0.135 RE=1.06 RB=4.26 RC=0.426
+ XTB=1.5 CJE=26.8p VJE=1.10 MJE=0.500 CJC=8.67p VJC=0.300
+ MJC=0.300 TF=221p TR=49.1n EG=1.12 )

*SRC=BC857BLP4;DI_BC857BLP4;BJTs PNP; Si;  45.0V  0.100A  220MHz    
.MODEL DI_BC857BLP4  PNP (IS=2.24f NF=1.00 BF=333 VAF=121
+ IKF=98.0m ISE=4.59f NE=2.00 BR=4.00 NR=1.00
+ VAR=20.0 IKR=0.150 RE=1.14 RB=4.58 RC=0.458
+ XTB=1.5 CJE=14.8p VJE=1.10 MJE=0.500 CJC=8.09p VJC=0.300
+ MJC=0.300 TF=659p TR=111n EG=1.12 )

*SRC=BC857BW;DI_BC857BW;BJTs PNP; Si;  45.0V  0.100A  200MHz   Diodes, Inc. transistor
.MODEL DI_BC857BW  PNP (IS=5.51f NF=1.00 BF=424 VAF=121
+ IKF=36.4m ISE=2.35p NE=2.00 BR=4.00 NR=1.00
+ VAR=20.0 IKR=90.0m RE=0.765 RB=3.06 RC=0.306
+ XTB=1.5 CJE=26.9p VJE=1.10 MJE=0.500 CJC=8.67p VJC=0.300
+ MJC=0.300 TF=700p TR=121n EG=1.12 )

*SRC=BC857CW;DI_BC857CW;BJTs PNP; Si;  45.0V  0.100A  250MHz   Diodes Inc. BJTs
.MODEL DI_BC857CW  PNP (IS=10.2f NF=1.00 BF=1.09k VAF=121
+ IKF=36.4m ISE=1.24p NE=2.00 BR=4.00 NR=1.00
+ VAR=20.0 IKR=90.0m RE=0.715 RB=2.86 RC=0.286
+ XTB=1.5 CJE=13.3p VJE=1.10 MJE=0.500 CJC=7.80p VJC=0.300
+ MJC=0.300 TF=587p TR=95.0n EG=1.12 )

*SRC=BC858C;DI_BC858C;BJTs PNP; Si;  30.0V  0.100A  250MHz   Diodes Inc. BJTs
.MODEL DI_BC858C  PNP (IS=10.2f NF=1.00 BF=1.09k VAF=98.6
+ IKF=36.4m ISE=1.24p NE=2.00 BR=4.00 NR=1.00
+ VAR=20.0 IKR=90.0m RE=0.715 RB=2.86 RC=0.286
+ XTB=1.5 CJE=13.3p VJE=1.10 MJE=0.500 CJC=7.80p VJC=0.300
+ MJC=0.300 TF=587p TR=95.0n EG=1.12 )

*SRC=DNLS350E;DI_DNLS350E;BJTs NPN; Si;  50.0V  3.00A  220MHz    
.MODEL DI_DNLS350E  NPN (IS=11.7f NF=1.00 BF=388 VAF=127
+ IKF=2.97 ISE=8.95f NE=2.00 BR=4.00 NR=1.00
+ VAR=20.0 IKR=4.50 RE=23.8m RB=95.3m RC=9.53m
+ XTB=1.5 CJE=341p VJE=1.10 MJE=0.500 CJC=45.4p VJC=0.300
+ MJC=0.300 TF=574p TR=111n EG=1.12 )

*SRC=DNLS350Y;DI_DNLS350Y;BJTs NPN; Si;  50.0V  3.00A  220MHz    
.MODEL DI_DNLS350Y  NPN (IS=11.7f NF=1.00 BF=388 VAF=127
+ IKF=2.97 ISE=8.95f NE=2.00 BR=4.00 NR=1.00
+ VAR=20.0 IKR=4.50 RE=23.8m RB=95.3m RC=9.53m
+ XTB=1.5 CJE=341p VJE=1.10 MJE=0.500 CJC=45.4p VJC=0.300
+ MJC=0.300 TF=574p TR=111n EG=1.12 )

*SRC=DPLS350Y;DI_DPLS350Y;BJTs PNP; Si;  50.0V  3.00A  200MHz    
.MODEL DI_DPLS350Y  PNP (IS=9.40f NF=1.00 BF=382 VAF=127
+ IKF=2.48 ISE=8.14f NE=2.00 BR=4.00 NR=1.00
+ VAR=24.0 IKR=3.75 RE=25.8m RB=0.103 RC=10.3m
+ XTB=1.5 CJE=337p VJE=1.10 MJE=0.500 CJC=76.7p VJC=0.300
+ MJC=0.300 TF=645p TR=122n EG=1.12 )

*
*DIODES_INC_SPICE_MODEL
*ORIGIN=DZSL_DPG_GM
*SIMULATOR=PSPICE
*DATE=13OCT2010
*VERSION=2
*
.MODEL DSS4140U NPN IS=6.8E-13 BF=700 NF=1.005 VAF=100 IKF=2.8
+ ISE=6E-14 NE=1.4 BR=42 NR=1 VAR=14 IKR=1 ISC=4.8E-13 NC=1.44
+ RE=0.02 RB=1 RC=0.032 CJE=141E-12 VJE=0.84 MJE=0.4 CJC=31E-12
+ VJC=0.55 MJC=0.4 TF=0.59E-9 TR=6E-9 RCO=1.7 GAMMA=3E-8
+ QUASIMOD=1 XTB=1.35 TRE1=0.0045 TRB1=0.0035 TRC1=0.0045
*
*$

*
*DIODES_INC_SPICE_MODEL
*ORIGIN=DZSL_DPG_GM
*SIMULATOR=PSPICE
*DATE=13OCT2010
*VERSION=2
*
.MODEL DSS4140V NPN IS=6.8E-13 BF=700 NF=1.005 VAF=100 IKF=2.8
+ ISE=6E-14 NE=1.4 BR=42 NR=1 VAR=14 IKR=1 ISC=4.8E-13 NC=1.44
+ RE=0.02 RB=1 RC=0.032 CJE=141E-12 VJE=0.84 MJE=0.4 CJC=31E-12
+ VJC=0.55 MJC=0.4 TF=0.59E-9 TR=6E-9 RCO=1.7 GAMMA=3E-8
+ QUASIMOD=1 XTB=1.35 TRE1=0.0045 TRB1=0.0035 TRC1=0.0045
*
*$

*
*DIODES_INC_SPICE_MODEL
*ORIGIN=DZSL_DPG_GM
*SIMULATOR=PSPICE
*DATE=13OCT2010
*VERSION=2
*
.MODEL DSS4240V NPN IS=6.8E-13 BF=700 NF=1.005 VAF=100 IKF=2.8
+ ISE=6E-14 NE=1.4 BR=42 NR=1 VAR=14 IKR=1 ISC=4.8E-13 NC=1.44
+ RE=0.02 RB=1 RC=0.032 CJE=141E-12 VJE=0.84 MJE=0.4 CJC=31E-12
+ VJC=0.55 MJC=0.4 TF=0.59E-9 TR=6E-9 RCO=1.7 GAMMA=3E-8
+ QUASIMOD=1 XTB=1.35 TRE1=0.0045 TRB1=0.0035 TRC1=0.0045
*
*$

*
*DIODES_INC_SPICE_MODEL
*ORIGIN=DZSL_DPG
*SIMULATOR=PSPICE
*DATE=21/04/2009
*VERSION=1
*
.MODEL DSS5140U PNP IS=3e-13 NF=1 ISE=8e-14 NE=1.47 BF=430
+ VAF=27 IKF=2.35 ISC=1e-13 NC=1.25 BR=29 VAR=9.3 IKR=0.5 RE=55e-3
+ RB=500e-3 RC=12e-3 CJE=158e-12 VJE=1.0 MJE=0.55 CJC=51e-12
+ VJC=0.7 MJC=0.45 TF=6e-10 TR=13.6e-9 XTB=1.6 QUASIMOD=1
+ RCO=0.85 GAMMA=6e-10
*
*$

*SRC=MMBT2222A;DI_MMBT2222A;BJTs NPN; Si;  40.0V  0.600A  200MHz   Diodes Inc. Transistor 
.MODEL DI_MMBT2222A  NPN (IS=25.4f NF=1.00 BF=274 VAF=114 
+ IKF=0.121 ISE=14.3p NE=2.00 BR=4.00 NR=1.00 
+ VAR=24.0 IKR=0.300 RE=0.219 RB=0.877 RC=87.7m 
+ XTB=1.5 CJE=27.6p VJE=1.10 MJE=0.500 CJC=14.2p VJC=0.300 
+ MJC=0.300 TF=622p TR=124n EG=1.12 )

*SRC=MMBT2222AT;DI_MMBT2222AT;BJTs NPN; Si;  40.0V  0.600A  300MHz   Diodes
Inc. BJTs
.MODEL DI_MMBT2222AT  NPN (IS=60.4f NF=1.00 BF=301 VAF=114
+ IKF=66.8m ISE=14.8p NE=2.00 BR=4.00 NR=1.00
+ VAR=24.0 IKR=0.165 RE=0.261 RB=1.04 RC=0.104
+ XTB=1.5 CJE=36.2p VJE=1.10 MJE=0.500 CJC=23.1p VJC=0.300 MJC=0.300 
+ TF=491p TR=82.1n EG=1.12 )

*SRC=MMDT3946LP4;MMDT3946LP4_NPN;BJTs NPN; Si;  40.0V  0.200A  375MHz    
.MODEL MMDT3946LP4_NPN  NPN (IS=7.48e-016 NF=1.00 BF=141 VAF=114
+ IKF=0.118 ISE=6.24f NE=2.00 BR=4.00 NR=1.00
+ VAR=24.0 IKR=0.180 RE=0.477 RB=1.91 RC=0.191
+ XTB=1.5 CJE=11.1p VJE=1.10 MJE=0.500 CJC=4.97p VJC=0.300
+ MJC=0.300 TF=401p TR=69.4n EG=1.12 )

*SRC=MMDT3946LP4;MMDT3946LP4_PNP;BJTs PNP; Si;  40.0V  0.200A  490MHz    
.MODEL MMDT3946LP4_PNP  PNP (IS=5.58e-016 NF=1.00 BF=162 VAF=114
+ IKF=98.0m ISE=4.72f NE=2.00 BR=4.00 NR=1.00
+ VAR=20.0 IKR=0.150 RE=0.865 RB=3.46 RC=0.346
+ XTB=1.5 CJE=11.1p VJE=1.10 MJE=0.500 CJC=6.63p VJC=0.300
+ MJC=0.300 TF=301p TR=52.4n EG=1.12 )

.MODEL ZXT10N50DE6  NPN IS =5.8032E-13 NF =1.0027 BF =485 IKF=2.2 VAF=84
+               ISE=1.5933E-13 NE =1.4148 NR =1.0006 BR =110 IKR=1.4 
+               VAR=51 ISC=5E-12 NC =1.45 RB =0.042 RE =0.033 
+               RC =0.0375 CJC=40E-12 MJC=0.3708 VJC=0.4347 CJE=217E-12 
+               TF =0.78E-9 TR =9E-9

.MODEL ZXT10P40DE6 PNP IS =6.261E-13  BF =500 IKF =1.4 VAF =28.4 
+ISE=1.057E-13 NE =1.4923 NR =1.00 BR =42 IKR=0.65 VAR=10.21 
+ISC=6E-14 NC =1.124 RB =0.078 RE =0.077 RC =0.04 CJC=59.54E-12 
+MJC=0.5058 VJC=0.8427 CJE=201.4E-12 MJE=0.5244 VJE=1.021 
+TF =0.68E-9 TR =23.7E-9 NK=0.75 XTB=1.8 TRE1=.0025 TRB1=.0025 
+TRC1=.0025

*
*DIODES_INC_SPICE_MODEL
*ORIGIN=DZSL_DPG
*SIMULATOR=PSPICE
*DATE=10/11/2009
*VERSION=1
*
.MODEL ZXT790AK PNP IS=1.09684E-12 NF=1.0102 BF=650 IKF=1.7 NK=0.75
+VAF=23.5 ISE=9.88593E-14 NE=1.47256 NR=1.00391 BR=270 IKR=0.2 VAR=30
+ISC=5.4933E-14 NC=1.07427 RB=0.055 RE=0.049 RC=0.078 CJC=96E-12
+MJC=0.495 VJC=0.67 CJE=275E-12 TF=0.75E-9 TR=10.8E-9 XTB=1.4 
+TRE1=.0025 TRB1=.0025 TRC1=.0025
*
*$

*
*DIODES_INC_SPICE_MODEL
*ORIGIN=DZSL_DPG_GM
*SIMULATOR=PSPICE
*DATE=23FEB2011
*VERSION=1
*
.MODEL ZXT849K NPN IS =5.8591E-13 NF =0.9919 BF =230 IKF=18 VAF=90
+ ISE=2.0067E-13 NE =1.4 NR =0.9908 BR =180 IKR=6.8 
+ VAR=20 ISC=5.3E-13 NC =1.46 RB =0.023 RE =0.0223 
+ RC =0.015 CJC=200E-12 MJC=0.3006 VJC=0.3532 
+ CJE=1.21E-9 TF =1.07E-9 TR =9.3E-9
*
*$

*
*DIODES_INC_SPICE_MODEL
*ORIGIN=DZSL_DPG_GM
*SIMULATOR=PSPICE
*DATE=24JAN2011
*VERSION=1
*PIN_ORDER         
*1=B1
*2=E1
*3=B2
*4=E2
*5=C2
*6=C2
*7=C1
*8=C1
*
.SUBCKT ZXTC6719MC 1 2 3 4 5 6 7 8
Q1 10 1 2 Nmod
Q2 20 3 4 Pmod
RP1 10 7 0.001
RP2 10 8 0.001
RP3 20 5 0.001
RP4 20 6 0.001
*
.MODEL Nmod NPN IS=5.8032E-13 NF=1.0027 BF=485 IKF=2.2 VAF=84
+ ISE=1.5933E-13 NE=1.4148 NR=1.0006 BR=110 IKR=1.4 
+ VAR=51 ISC=5E-12 NC=1.45 RB=0.042 RE=0.033 
+ RC=0.0375 CJC=40E-12 MJC=0.3708 VJC=0.4347 CJE=217E-12 
+ TF=0.78E-9 TR=9E-9
.MODEL Pmod PNP IS=6.261E-13  BF=500 IKF=1.4 VAF=28.4 
+ ISE=1.057E-13 NE=1.4923 NR=1.00 BR=42 IKR=0.65 VAR=10.21 
+ ISC=6E-14 NC=1.124 RB=0.078 RE=0.077 RC=0.04 CJC=59.54E-12 
+ MJC=0.5058 VJC=0.8427 CJE=201.4E-12 MJE=0.5244 VJE=1.021 
+ TF=0.68E-9 TR=23.7E-9 NK=0.75 XTB=1.8 TRE1=.0025 TRB1=.0025 
+ TRC1=.0025
.ENDS
*
*$

.MODEL ZXTP2008Z  PNP IS=1.5111E-12 NF=1.0127 BF=208 XTB=1.4 IKF=7.5
+VAF=43.4 ISE=1.335E-13 NE=1.42 NR=1.009 BR=100 IKR=1.3 VAR=9.7
+ISC=1.392E-13 NC=1.22 RB=0.12 RE=0.022 RC=0.004 CJC=246E-12
+MJC=0.338 VJC=0.4294 CJE=796E-12 TF=1.01E-9 TR=5E-9

*
*Zetex ZXTP2041F Spice Model v1.0 Last Revised 10/03/06
*
.MODEL ZXTP2041F PNP IS =3.0572E-13 NF =1.0103 BF =450 IKF=0.93
+VAF=20 ISE=1.5E-14 NE =1.52 NR =1.007 BR =160 IKR=0.08 VAR=33 
+ISC=3.8736E-14 NC =1.0893 RB =0.112 RE =0.144 RC =0.156 
+CJC=42E-12 MJC=0.4449 VJC=0.3131 CJE=91E-12 
+TF =0.51E-9 TR =3.6E-9
*
*$
*
*                (c)  2006 Zetex Semiconductors plc
*
*   The copyright in these models  and  the designs embodied belong
*   to Zetex Semiconductors plc (" Zetex ").  They  are  supplied
*   free of charge by Zetex for the purpose of research and design
*   and may be used or copied intact  (including this notice)  for
*   that purpose only.  All other rights are reserved. The models
*   are believed accurate but  no condition  or warranty  as to their
*   merchantability or fitness for purpose is given and no liability
*   in respect of any use is accepted by Zetex PLC, its distributors
*   or agents.
*
*   Zetex Semiconductors plc, Zetex Technology Park, Chadderton,
*   Oldham, United Kingdom, OL9 9LL

*
*ZETEX ZXTP25040DFL Spice Model v1.0 Last revision 25/07/07
*
.MODEL ZXTP25040DFL PNP IS=4E-13 NF=1 BF=470 IKF=3.5 VAF=23 ISE=10E-14
+NE=1.49 NR=1 BR=97 IKR=1 VAR=4.5 ISC=7.5e-14 NC=1.2 RE=0.014 RB=0.12
+RC=0.0111 RCO=0.88 GAMMA=0.6E-9 CJC=58E-12 MJC=0.41 VJC=0.62 CJE=183E-12
+MJE=0.5 VJE=0.95 TF=3.9E-10 TR=7.8e-9 XTB=1.5 TRE1=0.003 TRB1=0.003
+TRC1=0.003 QUASIMOD=1
*
*$
*
*                (c)  2007 Zetex Semiconductors plc
*
*   The copyright in these models  and  the designs embodied belong
*   to Zetex Semiconductors plc (" Zetex ").  They  are  supplied
*   free of charge by Zetex for the purpose of research and design
*   and may be used or copied intact  (including this notice)  for
*   that purpose only.  All other rights are reserved. The models
*   are believed accurate but  no condition  or warranty  as to their
*   merchantability or fitness for purpose is given and no liability
*   in respect of any use is accepted by Zetex PLC, its distributors
*   or agents.
*
*   Zetex Semiconductors plc, Zetex Technology Park, Chadderton,
*   Oldham, United Kingdom, OL9 9LL

*SRC=2DC4617R;DI_2DC4617R;BJTs NPN; Si;  50.0V  0.150A  200MHz   Diodes Inc. Bipolar Transistor
.MODEL DI_2DC4617R  NPN (IS=15.5f NF=1.00 BF=524 VAF=127
+ IKF=54.7m ISE=3.90p NE=2.00 BR=4.00 NR=1.00
+ VAR=28.0 IKR=0.135 RE=0.290 RB=1.16 RC=0.116
+ XTB=1.5 CJE=22.7p VJE=1.10 MJE=0.500 CJC=7.34p VJC=0.300
+ MJC=0.300 TF=698p TR=121n EG=1.12 )

*SRC=BC807-25W;DI_BC807-25W;BJTs PNP; Si;  45.0V  0.500A  163MHz   Diodes Inc. PNP BJT
.MODEL DI_BC807-25W  NPN (IS=49.9f NF=1.00 BF=547 VAF=121
+ IKF=0.182 ISE=12.3p NE=2.00 BR=4.00 NR=1.00
+ VAR=20.0 IKR=0.450 RE=0.663 RB=2.65 RC=0.265
+ XTB=1.5 CJE=107p VJE=1.10 MJE=0.500 CJC=34.7p VJC=0.300
+ MJC=0.300 TF=841p TR=110n EG=1.12 )

*SRC=BC807-40W;DI_BC807-40W;BJTs PNP; Si;  45.0V  0.500A  163MHz   Diodes Inc. PNP BJT
.MODEL DI_BC807-40W  NPN (IS=49.9f NF=1.00 BF=821 VAF=121
+ IKF=0.182 ISE=8.17p NE=2.00 BR=4.00 NR=1.00
+ VAR=20.0 IKR=0.450 RE=0.663 RB=2.65 RC=0.265
+ XTB=1.5 CJE=107p VJE=1.10 MJE=0.500 CJC=34.7p VJC=0.300
+ MJC=0.300 TF=841p TR=109n EG=1.12 )

*SRC=BC817-16;DI_BC817-16;BJTs NPN; Si;  45.0V  0.800A  220MHz   Diodes
Inc. BJTs
.MODEL DI_BC817-16  NPN (IS=4.04n NF=1.00 BF=342 VAF=121
+ IKF=0.273 ISE=6.86n NE=2.00 BR=4.00 NR=1.00
+ VAR=20.0 IKR=0.675 RE=0.227 RB=0.907 RC=90.7m
+ XTB=1.5 CJE=107p VJE=1.10 MJE=0.500 CJC=34.7p VJC=0.300 MJC=0.300 
+ TF=651p TR=111n EG=1.12 )

*SRC=BC817-25;DI_BC817-25;BJTs NPN; Si;  45.0V  0.800A  220MHz   Diodes
Inc. BJTs
.MODEL DI_BC817-25  NPN (IS=4.04n NF=1.00 BF=548 VAF=121
+ IKF=0.273 ISE=4.29n NE=2.00 BR=4.00 NR=1.00
+ VAR=20.0 IKR=0.675 RE=0.227 RB=0.907 RC=90.7m
+ XTB=1.5 CJE=107p VJE=1.10 MJE=0.500 CJC=34.7p VJC=0.300 MJC=0.300 
+ TF=651p TR=109n EG=1.12 )

*SRC=BC817-40;DI_BC817-40;BJTs NPN; Si;  45.0V  0.800A  220MHz   Diodes
Inc. BJTs
.MODEL DI_BC817-40  NPN (IS=4.04n NF=1.00 BF=822 VAF=121
+ IKF=0.273 ISE=2.86n NE=2.00 BR=4.00 NR=1.00
+ VAR=20.0 IKR=0.675 RE=0.227 RB=0.907 RC=90.7m
+ XTB=1.5 CJE=107p VJE=1.10 MJE=0.500 CJC=34.7p VJC=0.300 MJC=0.300 
+ TF=651p TR=108n EG=1.12 )

*SRC=BC847AT;DI_BC847AT;BJTs NPN; Si;  45.0V  0.100A  300MHz   Diodes Inc
BJTs
.MODEL DI_BC847AT  NPN (IS=9.98f NF=1.00 BF=301 VAF=121
+ IKF=60.7m ISE=5.75p NE=2.00 BR=4.00 NR=1.00
+ VAR=24.0 IKR=0.150 RE=0.815 RB=3.26 RC=0.326
+ XTB=1.5 CJE=26.8p VJE=1.10 MJE=0.500 CJC=13.0p VJC=0.300 MJC=0.300 
+ TF=423p TR=50.3n EG=1.12 )

*SRC=BC847B;DI_BC847B;BJTs NPN; Si;  45.0V  0.100A  300MHz   Diodes, Inc. transistor
.MODEL DI_BC847B  NPN (IS=3.75f NF=1.00 BF=1.61k VAF=121
+ IKF=8.79m ISE=8.38p NE=2.00 BR=4.00 NR=1.00
+ VAR=24.0 IKR=90.0m RE=0.765 RB=3.06 RC=0.306
+ XTB=1.5 CJE=13.3p VJE=1.10 MJE=0.500 CJC=8.67p VJC=0.300
+ MJC=0.300 TF=520p TR=78.9n EG=1.12 )

*SRC=BC847BLD;DI_BC847BLD;BJTs NPN; Si;  45.0V  0.200A  347MHz    -
.MODEL DI_BC847BLD  NPN (IS=5.61f NF=1.00 BF=300 VAF=121
+ IKF=70.3m ISE=286f NE=2.00 BR=4.00 NR=1.00
+ VAR=24.0 IKR=0.120 RE=0.637 RB=2.55 RC=0.255
+ XTB=1.5 CJE=15.8p VJE=1.10 MJE=0.500 CJC=4.47p VJC=0.300
+ MJC=0.300 TF=379p TR=71.0n EG=1.12 )

*SRC=BC847BT;DI_BC847BT;BJTs NPN; Si;  45.0V  0.100A  300MHz   Diodes Inc
BJTs
.MODEL DI_BC847BT  NPN (IS=9.98f NF=1.00 BF=616 VAF=121
+ IKF=60.7m ISE=2.81p NE=2.00 BR=4.00 NR=1.00
+ VAR=24.0 IKR=0.150 RE=0.815 RB=3.26 RC=0.326
+ XTB=1.5 CJE=26.8p VJE=1.10 MJE=0.500 CJC=13.0p VJC=0.300 MJC=0.300 
+ TF=423p TR=49.1n EG=1.12 )

*SRC=BC848A;DI_BC848A;BJTs NPN; Si;  30.0V  0.100A  300MHz   Diodes Inc
BJTs
.MODEL DI_BC848A  NPN (IS=10.2f NF=1.00 BF=1.09k VAF=98.6
+ IKF=60.7m ISE=1.60p NE=2.00 BR=4.00 NR=1.00
+ VAR=20.0 IKR=0.150 RE=0.915 RB=3.66 RC=0.366
+ XTB=1.5 CJE=26.8p VJE=1.10 MJE=0.500 CJC=8.67p VJC=0.300 MJC=0.300 
+ TF=427p TR=48.6n EG=1.12 )

*SRC=BC848B;DI_BC848B;BJTs NPN; Si;  30.0V  0.100A  300MHz   Diodes Inc
BJTs
.MODEL DI_BC848B  NPN (IS=10.2f NF=1.00 BF=616 VAF=98.6
+ IKF=60.7m ISE=2.84p NE=2.00 BR=4.00 NR=1.00
+ VAR=20.0 IKR=0.150 RE=0.915 RB=3.66 RC=0.366
+ XTB=1.5 CJE=26.8p VJE=1.10 MJE=0.500 CJC=8.67p VJC=0.300 MJC=0.300 
+ TF=427p TR=49.1n EG=1.12 )

*SRC=BC848CW;DI_BC848CW;BJTs NPN; Si;  30.0V  0.100A  300MHz   Diodes Inc
BJTs
.MODEL DI_BC848CW  NPN (IS=10.2f NF=1.00 BF=1.09k VAF=98.6
+ IKF=60.7m ISE=1.60p NE=2.00 BR=4.00 NR=1.00
+ VAR=20.0 IKR=0.150 RE=0.915 RB=3.66 RC=0.366
+ XTB=1.5 CJE=26.8p VJE=1.10 MJE=0.500 CJC=8.67p VJC=0.300 MJC=0.300 
+ TF=427p TR=48.6n EG=1.12 )

*SRC=BC857AT;DI_BC857AT;BJTs PNP; Si;  45.0V  0.100A  250MHz   Diodes Inc. BJTs
.MODEL DI_BC857AT  PNP (IS=10.2f NF=1.00 BF=342 VAF=121
+ IKF=72.9m ISE=5.59p NE=2.00 BR=4.00 NR=1.00
+ VAR=20.0 IKR=0.180 RE=0.715 RB=2.86 RC=0.286
+ XTB=1.5 CJE=37.6p VJE=1.10 MJE=0.500 CJC=12.1p VJC=0.300
+ MJC=0.300 TF=488p TR=97.8n EG=1.12 )

*SRC=BC857AW;DI_BC857AW;BJTs PNP; Si;  45.0V  0.100A  250MHz   Diodes Inc. BJTs
.MODEL DI_BC857AW  PNP (IS=10.2f NF=1.00 BF=342 VAF=121
+ IKF=72.9m ISE=5.59p NE=2.00 BR=4.00 NR=1.00
+ VAR=20.0 IKR=0.180 RE=0.715 RB=2.86 RC=0.286
+ XTB=1.5 CJE=13.3p VJE=1.10 MJE=0.500 CJC=7.80p VJC=0.300
+ MJC=0.300 TF=581p TR=97.8n EG=1.12 )

*SRC=BC857BT;DI_BC857BT;BJTs PNP; Si;  45.0V  0.100A  200MHz   Diodes, Inc. transistor
.MODEL DI_BC857B  PNP (IS=5.51f NF=1.00 BF=424 VAF=121
+ IKF=36.4m ISE=2.35p NE=2.00 BR=4.00 NR=1.00
+ VAR=20.0 IKR=90.0m RE=0.765 RB=3.06 RC=0.306
+ XTB=1.5 CJE=26.9p VJE=1.10 MJE=0.500 CJC=8.67p VJC=0.300
+ MJC=0.300 TF=700p TR=121n EG=1.12 )

*SRC=BC857CT;DI_BC857CT;BJTs PNP; Si;  45.0V  0.100A  250MHz   Diodes Inc. BJTs
.MODEL DI_BC857CT  PNP (IS=10.2f NF=1.00 BF=1.09k VAF=121
+ IKF=36.4m ISE=1.24p NE=2.00 BR=4.00 NR=1.00
+ VAR=20.0 IKR=90.0m RE=0.715 RB=2.86 RC=0.286
+ XTB=1.5 CJE=30.8p VJE=1.10 MJE=0.500 CJC=12.1p VJC=0.300
+ MJC=0.300 TF=526p TR=95.0n EG=1.12 )

*SRC=BC858A;DIBC858A;BJTs PNP; Si;  30.0V  0.100A  250MHz   Diodes Inc. BJTs
.MODEL DIBC858A  PNP (IS=10.2f NF=1.00 BF=342 VAF=98.6
+ IKF=72.9m ISE=5.59p NE=2.00 BR=4.00 NR=1.00
+ VAR=20.0 IKR=0.180 RE=0.715 RB=2.86 RC=0.286
+ XTB=1.5 CJE=13.3p VJE=1.10 MJE=0.500 CJC=7.80p VJC=0.300
+ MJC=0.300 TF=581p TR=97.8n EG=1.12 )

*SRC=BC858AW;DI_BC858AW;BJTs PNP; Si;  30.0V  0.100A  250MHz   Diodes Inc. BJTs